<?xml version="1.0" encoding="UTF-8"?>

<!-- generated on 2023-11-23 15:53:10.390530 by randomTrips.py v1_19_0+0000-baa66a0f364
<configuration>
    <net-file value="sim_files/3_junction.net.xml"/>
    <validate value="True"/>
    <end value="10000.0"/>
    <insertion-rate value="1000.0"/>
</configuration>
-->

<!-- generated on 2023-11-23 15:53:10 by Eclipse SUMO duarouter Version 1.19.0
<configuration xmlns:xsi="http://www.w3.org/2001/XMLSchema-instance" xsi:noNamespaceSchemaLocation="http://sumo.dlr.de/xsd/duarouterConfiguration.xsd">

    <input>
        <net-file value="sim_files/3_junction.net.xml"/>
        <route-files value="trips.trips.xml"/>
    </input>

    <output>
        <output-file value="routes.rou.xml"/>
        <alternatives-output value="NUL"/>
    </output>

    <time>
        <begin value="0.0"/>
        <end value="10000.0"/>
    </time>

    <report>
        <no-warnings value="true"/>
        <ignore-errors value="true"/>
        <no-step-log value="true"/>
    </report>

</configuration>
-->

<routes xmlns:xsi="http://www.w3.org/2001/XMLSchema-instance" xsi:noNamespaceSchemaLocation="http://sumo.dlr.de/xsd/routes_file.xsd">
    <vehicle type = "truck" id="2" depart="7.20">
        <route edges="s1k1 k1k2 k2k3 k3e1"/>
    </vehicle>
    <vehicle id="3" depart="10.80">
        <route edges="s3k3 k3k2 k2k1 k1n1"/>
    </vehicle>
    <vehicle id="4" depart="14.40">
        <route edges="n1k1 k1k2"/>
    </vehicle>
    <vehicle id="6" depart="21.60">
        <route edges="e1k3 k3k2 k2k1 k1s1"/>
    </vehicle>
    <vehicle id="7" depart="25.20">
        <route edges="n3k3 k3k2 k2n2"/>
    </vehicle>
    <vehicle id="10" depart="36.00">
        <route edges="s2k2 k2k3 k3e1"/>
    </vehicle>
    <vehicle id="11" depart="39.60">
        <route edges="k3k2 k2k1 k1n1"/>
    </vehicle>
    <vehicle id="14" depart="50.40">
        <route edges="s3k3 k3k2 k2s2"/>
    </vehicle>
    <vehicle id="15" depart="54.00">
        <route edges="s2k2 k2k3 k3e1"/>
    </vehicle>
    <vehicle id="16" depart="57.60">
        <route edges="n2k2 k2k3 k3s3"/>
    </vehicle>
    <vehicle id="17" depart="61.20">
        <route edges="k3k2 k2n2"/>
    </vehicle>
    <vehicle id="19" depart="68.40">
        <route edges="s3k3 k3k2 k2n2"/>
    </vehicle>
    <vehicle id="20" depart="72.00">
        <route edges="s1k1 k1k2"/>
    </vehicle>
    <vehicle id="21" depart="75.60">
        <route edges="k2k1 k1w1"/>
    </vehicle>
    <vehicle id="22" depart="79.20">
        <route edges="e1k3 k3k2 k2k1 k1s1"/>
    </vehicle>
    <vehicle id="24" depart="86.40">
        <route edges="n3k3 k3k2 k2k1"/>
    </vehicle>
    <vehicle id="25" depart="90.00">
        <route edges="k3k2 k2k1 k1s1"/>
    </vehicle>
    <vehicle id="26" depart="93.60">
        <route edges="k2k3 k3s3"/>
    </vehicle>
    <vehicle id="27" depart="97.20">
        <route edges="n3k3 k3k2 k2s2"/>
    </vehicle>
    <vehicle id="30" depart="108.00">
        <route edges="w1k1 k1k2 k2s2"/>
    </vehicle>
    <vehicle id="31" depart="111.60">
        <route edges="n2k2 k2k3 k3e1"/>
    </vehicle>
    <vehicle id="32" depart="115.20">
        <route edges="s3k3 k3k2"/>
    </vehicle>
    <vehicle id="36" depart="129.60">
        <route edges="s3k3 k3k2 k2k1 k1w1"/>
    </vehicle>
    <vehicle id="37" depart="133.20">
        <route edges="n3k3 k3k2 k2k1"/>
    </vehicle>
    <vehicle id="40" depart="144.00">
        <route edges="n2k2 k2k1 k1w1"/>
    </vehicle>
    <vehicle id="42" depart="151.20">
        <route edges="k3k2 k2k1 k1s1"/>
    </vehicle>
    <vehicle id="43" depart="154.80">
        <route edges="w1k1 k1k2 k2n2"/>
    </vehicle>
    <vehicle id="44" depart="158.40">
        <route edges="k1k2"/>
    </vehicle>
    <vehicle id="45" depart="162.00">
        <route edges="k1k2 k2s2"/>
    </vehicle>
    <vehicle id="46" depart="165.60">
        <route edges="s2k2 k2k3"/>
    </vehicle>
    <vehicle id="47" depart="169.20">
        <route edges="e1k3 k3k2 k2k1"/>
    </vehicle>
    <vehicle id="48" depart="172.80">
        <route edges="w1k1 k1k2 k2n2"/>
    </vehicle>
    <vehicle id="49" depart="176.40">
        <route edges="w1k1 k1k2 k2k3 k3n3"/>
    </vehicle>
    <vehicle id="51" depart="183.60">
        <route edges="s1k1 k1k2 k2n2"/>
    </vehicle>
    <vehicle id="53" depart="190.80">
        <route edges="k1k2 k2k3"/>
    </vehicle>
    <vehicle id="54" depart="194.40">
        <route edges="n1k1 k1k2 k2k3 k3s3"/>
    </vehicle>
    <vehicle id="55" depart="198.00">
        <route edges="s3k3 k3k2 k2k1 k1w1"/>
    </vehicle>
    <vehicle id="56" depart="201.60">
        <route edges="n2k2 k2k1 k1s1"/>
    </vehicle>
    <vehicle id="57" depart="205.20">
        <route edges="s3k3 k3n3"/>
    </vehicle>
    <vehicle id="59" depart="212.40">
        <route edges="n3k3 k3k2 k2k1 k1n1"/>
    </vehicle>
    <vehicle id="60" depart="216.00">
        <route edges="s2k2 k2n2"/>
    </vehicle>
    <vehicle id="61" depart="219.60">
        <route edges="s2k2 k2n2"/>
    </vehicle>
    <vehicle id="62" depart="223.20">
        <route edges="e1k3 k3k2 k2k1 k1w1"/>
    </vehicle>
    <vehicle id="63" depart="226.80">
        <route edges="e1k3 k3s3"/>
    </vehicle>
    <vehicle id="64" depart="230.40">
        <route edges="s3k3 k3k2"/>
    </vehicle>
    <vehicle id="67" depart="241.20">
        <route edges="k1k2 k2k3"/>
    </vehicle>
    <vehicle id="68" depart="244.80">
        <route edges="e1k3 k3k2"/>
    </vehicle>
    <vehicle id="69" depart="248.40">
        <route edges="s2k2 k2k1 k1n1"/>
    </vehicle>
    <vehicle id="70" depart="252.00">
        <route edges="n1k1 k1k2 k2n2"/>
    </vehicle>
    <vehicle id="71" depart="255.60">
        <route edges="k2k3 k3n3"/>
    </vehicle>
    <vehicle id="72" depart="259.20">
        <route edges="n1k1 k1s1"/>
    </vehicle>
    <vehicle id="73" depart="262.80">
        <route edges="n2k2 k2k3 k3e1"/>
    </vehicle>
    <vehicle id="74" depart="266.40">
        <route edges="k2k1 k1w1"/>
    </vehicle>
    <vehicle id="75" depart="270.00">
        <route edges="w1k1 k1k2 k2s2"/>
    </vehicle>
    <vehicle id="76" depart="273.60">
        <route edges="n1k1 k1k2 k2n2"/>
    </vehicle>
    <vehicle id="78" depart="280.80">
        <route edges="k3k2 k2s2"/>
    </vehicle>
    <vehicle id="79" depart="284.40">
        <route edges="k2k1 k1s1"/>
    </vehicle>
    <vehicle id="80" depart="288.00">
        <route edges="e1k3 k3k2 k2s2"/>
    </vehicle>
    <vehicle id="84" depart="302.40">
        <route edges="k2k1 k1n1"/>
    </vehicle>
    <vehicle id="85" depart="306.00">
        <route edges="w1k1 k1k2 k2n2"/>
    </vehicle>
    <vehicle id="87" depart="313.20">
        <route edges="s2k2 k2k1 k1s1"/>
    </vehicle>
    <vehicle id="88" depart="316.80">
        <route edges="k1k2 k2k3"/>
    </vehicle>
    <vehicle id="89" depart="320.40">
        <route edges="n1k1 k1k2 k2k3"/>
    </vehicle>
    <vehicle id="90" depart="324.00">
        <route edges="s1k1 k1k2 k2k3 k3e1"/>
    </vehicle>
    <vehicle id="91" depart="327.60">
        <route edges="w1k1 k1n1"/>
    </vehicle>
    <vehicle id="92" depart="331.20">
        <route edges="k3k2 k2k1"/>
    </vehicle>
    <vehicle id="93" depart="334.80">
        <route edges="s3k3 k3k2 k2k1 k1s1"/>
    </vehicle>
    <vehicle id="95" depart="342.00">
        <route edges="n1k1 k1w1"/>
    </vehicle>
    <vehicle id="97" depart="349.20">
        <route edges="n1k1 k1k2 k2k3 k3n3"/>
    </vehicle>
    <vehicle id="99" depart="356.40">
        <route edges="w1k1 k1k2 k2k3 k3n3"/>
    </vehicle>
    <vehicle id="100" depart="360.00">
        <route edges="w1k1 k1k2 k2k3 k3s3"/>
    </vehicle>
    <vehicle id="101" depart="363.60">
        <route edges="s3k3 k3k2 k2k1 k1n1"/>
    </vehicle>
    <vehicle id="102" depart="367.20">
        <route edges="n1k1 k1s1"/>
    </vehicle>
    <vehicle id="106" depart="381.60">
        <route edges="n1k1 k1k2 k2k3"/>
    </vehicle>
    <vehicle id="107" depart="385.20">
        <route edges="w1k1 k1k2 k2k3 k3s3"/>
    </vehicle>
    <vehicle id="108" depart="388.80">
        <route edges="n2k2 k2k3 k3e1"/>
    </vehicle>
    <vehicle id="110" depart="396.00">
        <route edges="w1k1 k1k2 k2n2"/>
    </vehicle>
    <vehicle id="111" depart="399.60">
        <route edges="n2k2 k2k3 k3e1"/>
    </vehicle>
    <vehicle id="112" depart="403.20">
        <route edges="e1k3 k3k2 k2s2"/>
    </vehicle>
    <vehicle id="113" depart="406.80">
        <route edges="n2k2 k2k3 k3n3"/>
    </vehicle>
    <vehicle id="114" depart="410.40">
        <route edges="k1k2 k2k3 k3s3"/>
    </vehicle>
    <vehicle id="115" depart="414.00">
        <route edges="e1k3 k3k2 k2k1 k1s1"/>
    </vehicle>
    <vehicle id="116" depart="417.60">
        <route edges="n3k3 k3e1"/>
    </vehicle>
    <vehicle id="117" depart="421.20">
        <route edges="k2k1 k1n1"/>
    </vehicle>
    <vehicle id="118" depart="424.80">
        <route edges="s3k3 k3k2 k2k1 k1s1"/>
    </vehicle>
    <vehicle id="119" depart="428.40">
        <route edges="n3k3 k3k2 k2s2"/>
    </vehicle>
    <vehicle id="120" depart="432.00">
        <route edges="n1k1 k1k2 k2s2"/>
    </vehicle>
    <vehicle id="121" depart="435.60">
        <route edges="n2k2 k2k3 k3s3"/>
    </vehicle>
    <vehicle id="123" depart="442.80">
        <route edges="k2k1"/>
    </vehicle>
    <vehicle id="124" depart="446.40">
        <route edges="s1k1 k1w1"/>
    </vehicle>
    <vehicle id="127" depart="457.20">
        <route edges="w1k1 k1k2 k2k3 k3s3"/>
    </vehicle>
    <vehicle id="128" depart="460.80">
        <route edges="e1k3 k3k2 k2k1 k1s1"/>
    </vehicle>
    <vehicle id="129" depart="464.40">
        <route edges="k2k3 k3s3"/>
    </vehicle>
    <vehicle id="130" depart="468.00">
        <route edges="s3k3 k3n3"/>
    </vehicle>
    <vehicle id="131" depart="471.60">
        <route edges="k3k2 k2k1 k1n1"/>
    </vehicle>
    <vehicle id="132" depart="475.20">
        <route edges="s3k3 k3e1"/>
    </vehicle>
    <vehicle id="133" depart="478.80">
        <route edges="n3k3 k3s3"/>
    </vehicle>
    <vehicle id="135" depart="486.00">
        <route edges="s2k2 k2k1 k1w1"/>
    </vehicle>
    <vehicle id="136" depart="489.60">
        <route edges="n3k3 k3s3"/>
    </vehicle>
    <vehicle id="138" depart="496.80">
        <route edges="k1k2 k2n2"/>
    </vehicle>
    <vehicle id="141" depart="507.60">
        <route edges="n3k3 k3k2 k2k1 k1w1"/>
    </vehicle>
    <vehicle id="142" depart="511.20">
        <route edges="n1k1 k1k2 k2k3 k3n3"/>
    </vehicle>
    <vehicle id="143" depart="514.80">
        <route edges="s3k3 k3k2 k2k1 k1n1"/>
    </vehicle>
    <vehicle id="144" depart="518.40">
        <route edges="n1k1 k1w1"/>
    </vehicle>
    <vehicle id="145" depart="522.00">
        <route edges="e1k3 k3k2"/>
    </vehicle>
    <vehicle id="146" depart="525.60">
        <route edges="n3k3 k3k2 k2k1 k1w1"/>
    </vehicle>
    <vehicle id="147" depart="529.20">
        <route edges="s1k1 k1k2 k2n2"/>
    </vehicle>
    <vehicle id="148" depart="532.80">
        <route edges="n1k1 k1k2"/>
    </vehicle>
    <vehicle id="149" depart="536.40">
        <route edges="e1k3 k3n3"/>
    </vehicle>
    <vehicle id="150" depart="540.00">
        <route edges="s3k3 k3k2 k2n2"/>
    </vehicle>
    <vehicle id="151" depart="543.60">
        <route edges="s3k3 k3k2 k2n2"/>
    </vehicle>
    <vehicle id="153" depart="550.80">
        <route edges="k2k3 k3n3"/>
    </vehicle>
    <vehicle id="154" depart="554.40">
        <route edges="s2k2 k2k3 k3n3"/>
    </vehicle>
    <vehicle id="155" depart="558.00">
        <route edges="s3k3 k3k2 k2k1 k1s1"/>
    </vehicle>
    <vehicle id="156" depart="561.60">
        <route edges="k2k1 k1n1"/>
    </vehicle>
    <vehicle id="157" depart="565.20">
        <route edges="s2k2 k2k3 k3n3"/>
    </vehicle>
    <vehicle id="158" depart="568.80">
        <route edges="k3k2 k2s2"/>
    </vehicle>
    <vehicle id="159" depart="572.40">
        <route edges="k1k2 k2k3 k3s3"/>
    </vehicle>
    <vehicle id="161" depart="579.60">
        <route edges="s2k2 k2k3 k3n3"/>
    </vehicle>
    <vehicle id="163" depart="586.80">
        <route edges="k2k3 k3s3"/>
    </vehicle>
    <vehicle id="164" depart="590.40">
        <route edges="s2k2 k2k3 k3n3"/>
    </vehicle>
    <vehicle id="165" depart="594.00">
        <route edges="s2k2 k2k1 k1w1"/>
    </vehicle>
    <vehicle id="166" depart="597.60">
        <route edges="s2k2 k2k1 k1n1"/>
    </vehicle>
    <vehicle id="167" depart="601.20">
        <route edges="s3k3 k3n3"/>
    </vehicle>
    <vehicle id="169" depart="608.40">
        <route edges="n1k1 k1w1"/>
    </vehicle>
    <vehicle id="170" depart="612.00">
        <route edges="s2k2 k2k1 k1s1"/>
    </vehicle>
    <vehicle id="171" depart="615.60">
        <route edges="e1k3 k3k2 k2k1 k1s1"/>
    </vehicle>
    <vehicle id="172" depart="619.20">
        <route edges="k2k3 k3n3"/>
    </vehicle>
    <vehicle id="174" depart="626.40">
        <route edges="n3k3 k3k2 k2k1"/>
    </vehicle>
    <vehicle id="175" depart="630.00">
        <route edges="w1k1 k1k2 k2n2"/>
    </vehicle>
    <vehicle id="176" depart="633.60">
        <route edges="w1k1 k1n1"/>
    </vehicle>
    <vehicle id="177" depart="637.20">
        <route edges="w1k1 k1s1"/>
    </vehicle>
    <vehicle id="179" depart="644.40">
        <route edges="k1k2 k2k3"/>
    </vehicle>
    <vehicle id="180" depart="648.00">
        <route edges="s1k1 k1w1"/>
    </vehicle>
    <vehicle id="181" depart="651.60">
        <route edges="n3k3 k3k2 k2n2"/>
    </vehicle>
    <vehicle id="182" depart="655.20">
        <route edges="k3k2 k2n2"/>
    </vehicle>
    <vehicle id="183" depart="658.80">
        <route edges="k2k3 k3e1"/>
    </vehicle>
    <vehicle id="184" depart="662.40">
        <route edges="e1k3 k3s3"/>
    </vehicle>
    <vehicle id="185" depart="666.00">
        <route edges="n2k2 k2k3 k3e1"/>
    </vehicle>
    <vehicle id="186" depart="669.60">
        <route edges="s1k1 k1k2 k2k3 k3e1"/>
    </vehicle>
    <vehicle id="188" depart="676.80">
        <route edges="n3k3 k3k2 k2k1 k1w1"/>
    </vehicle>
    <vehicle id="189" depart="680.40">
        <route edges="k2k3 k3n3"/>
    </vehicle>
    <vehicle id="190" depart="684.00">
        <route edges="s1k1 k1w1"/>
    </vehicle>
    <vehicle id="192" depart="691.20">
        <route edges="k3k2 k2k1 k1w1"/>
    </vehicle>
    <vehicle id="193" depart="694.80">
        <route edges="k1k2 k2k3"/>
    </vehicle>
    <vehicle id="194" depart="698.40">
        <route edges="w1k1 k1k2 k2k3 k3e1"/>
    </vehicle>
    <vehicle id="195" depart="702.00">
        <route edges="s3k3 k3k2 k2s2"/>
    </vehicle>
    <vehicle id="197" depart="709.20">
        <route edges="e1k3 k3k2 k2k1 k1w1"/>
    </vehicle>
    <vehicle id="198" depart="712.80">
        <route edges="n1k1 k1k2 k2n2"/>
    </vehicle>
    <vehicle id="200" depart="720.00">
        <route edges="n1k1 k1s1"/>
    </vehicle>
    <vehicle id="201" depart="723.60">
        <route edges="n1k1 k1k2 k2k3 k3n3"/>
    </vehicle>
    <vehicle id="202" depart="727.20">
        <route edges="s2k2 k2k1 k1s1"/>
    </vehicle>
    <vehicle id="203" depart="730.80">
        <route edges="k1k2 k2n2"/>
    </vehicle>
    <vehicle id="204" depart="734.40">
        <route edges="n3k3 k3k2 k2k1"/>
    </vehicle>
    <vehicle id="210" depart="756.00">
        <route edges="k3k2 k2s2"/>
    </vehicle>
    <vehicle id="212" depart="763.20">
        <route edges="n1k1 k1s1"/>
    </vehicle>
    <vehicle id="215" depart="774.00">
        <route edges="k1k2 k2k3"/>
    </vehicle>
    <vehicle id="220" depart="792.00">
        <route edges="s1k1 k1k2 k2k3 k3s3"/>
    </vehicle>
    <vehicle id="221" depart="795.60">
        <route edges="n3k3 k3s3"/>
    </vehicle>
    <vehicle id="222" depart="799.20">
        <route edges="s3k3 k3k2 k2s2"/>
    </vehicle>
    <vehicle id="223" depart="802.80">
        <route edges="s1k1 k1k2 k2n2"/>
    </vehicle>
    <vehicle id="224" depart="806.40">
        <route edges="s2k2 k2n2"/>
    </vehicle>
    <vehicle id="225" depart="810.00">
        <route edges="s3k3 k3e1"/>
    </vehicle>
    <vehicle id="226" depart="813.60">
        <route edges="n1k1 k1w1"/>
    </vehicle>
    <vehicle id="228" depart="820.80">
        <route edges="s2k2 k2n2"/>
    </vehicle>
    <vehicle id="229" depart="824.40">
        <route edges="n3k3 k3k2 k2k1 k1w1"/>
    </vehicle>
    <vehicle id="230" depart="828.00">
        <route edges="e1k3 k3k2 k2k1 k1w1"/>
    </vehicle>
    <vehicle id="232" depart="835.20">
        <route edges="n2k2 k2k1 k1n1"/>
    </vehicle>
    <vehicle id="234" depart="842.40">
        <route edges="s1k1 k1k2"/>
    </vehicle>
    <vehicle id="235" depart="846.00">
        <route edges="k3k2 k2n2"/>
    </vehicle>
    <vehicle id="236" depart="849.60">
        <route edges="k3k2 k2k1 k1s1"/>
    </vehicle>
    <vehicle id="237" depart="853.20">
        <route edges="n1k1 k1k2 k2k3 k3n3"/>
    </vehicle>
    <vehicle id="238" depart="856.80">
        <route edges="n3k3 k3e1"/>
    </vehicle>
    <vehicle id="239" depart="860.40">
        <route edges="s3k3 k3k2"/>
    </vehicle>
    <vehicle id="241" depart="867.60">
        <route edges="k3k2"/>
    </vehicle>
    <vehicle id="243" depart="874.80">
        <route edges="n1k1 k1k2 k2k3 k3e1"/>
    </vehicle>
    <vehicle id="244" depart="878.40">
        <route edges="n2k2 k2s2"/>
    </vehicle>
    <vehicle id="245" depart="882.00">
        <route edges="k2k1 k1s1"/>
    </vehicle>
    <vehicle id="246" depart="885.60">
        <route edges="n1k1 k1k2"/>
    </vehicle>
    <vehicle id="248" depart="892.80">
        <route edges="k3k2 k2k1 k1n1"/>
    </vehicle>
    <vehicle id="251" depart="903.60">
        <route edges="k3k2 k2n2"/>
    </vehicle>
    <vehicle id="252" depart="907.20">
        <route edges="e1k3 k3k2 k2s2"/>
    </vehicle>
    <vehicle id="253" depart="910.80">
        <route edges="k1k2 k2k3"/>
    </vehicle>
    <vehicle id="254" depart="914.40">
        <route edges="e1k3 k3k2 k2k1"/>
    </vehicle>
    <vehicle id="255" depart="918.00">
        <route edges="k2k1 k1w1"/>
    </vehicle>
    <vehicle id="256" depart="921.60">
        <route edges="s2k2 k2k1"/>
    </vehicle>
    <vehicle id="259" depart="932.40">
        <route edges="e1k3 k3k2 k2n2"/>
    </vehicle>
    <vehicle id="261" depart="939.60">
        <route edges="n3k3 k3k2"/>
    </vehicle>
    <vehicle id="262" depart="943.20">
        <route edges="n3k3 k3k2"/>
    </vehicle>
    <vehicle id="263" depart="946.80">
        <route edges="w1k1 k1s1"/>
    </vehicle>
    <vehicle id="264" depart="950.40">
        <route edges="e1k3 k3k2 k2k1 k1n1"/>
    </vehicle>
    <vehicle id="265" depart="954.00">
        <route edges="k1k2 k2k3 k3e1"/>
    </vehicle>
    <vehicle id="266" depart="957.60">
        <route edges="n2k2 k2k1 k1s1"/>
    </vehicle>
    <vehicle id="269" depart="968.40">
        <route edges="s1k1 k1n1"/>
    </vehicle>
    <vehicle id="270" depart="972.00">
        <route edges="s2k2 k2k3 k3s3"/>
    </vehicle>
    <vehicle id="271" depart="975.60">
        <route edges="k1k2"/>
    </vehicle>
    <vehicle id="272" depart="979.20">
        <route edges="k2k3 k3e1"/>
    </vehicle>
    <vehicle id="274" depart="986.40">
        <route edges="s1k1 k1k2"/>
    </vehicle>
    <vehicle id="275" depart="990.00">
        <route edges="s1k1 k1k2 k2s2"/>
    </vehicle>
    <vehicle id="277" depart="997.20">
        <route edges="s3k3 k3k2 k2s2"/>
    </vehicle>
    <vehicle id="278" depart="1000.80">
        <route edges="k1k2 k2k3 k3s3"/>
    </vehicle>
    <vehicle id="279" depart="1004.40">
        <route edges="s2k2 k2k1"/>
    </vehicle>
    <vehicle id="281" depart="1011.60">
        <route edges="n2k2 k2k1"/>
    </vehicle>
    <vehicle id="282" depart="1015.20">
        <route edges="s3k3 k3k2"/>
    </vehicle>
    <vehicle id="283" depart="1018.80">
        <route edges="k1k2 k2k3 k3s3"/>
    </vehicle>
    <vehicle id="284" depart="1022.40">
        <route edges="n3k3 k3k2"/>
    </vehicle>
    <vehicle id="285" depart="1026.00">
        <route edges="s1k1 k1k2 k2k3"/>
    </vehicle>
    <vehicle id="286" depart="1029.60">
        <route edges="s1k1 k1k2 k2k3 k3s3"/>
    </vehicle>
    <vehicle id="288" depart="1036.80">
        <route edges="n2k2 k2k3"/>
    </vehicle>
    <vehicle id="289" depart="1040.40">
        <route edges="n1k1 k1k2 k2k3 k3e1"/>
    </vehicle>
    <vehicle id="290" depart="1044.00">
        <route edges="k2k3 k3n3"/>
    </vehicle>
    <vehicle id="291" depart="1047.60">
        <route edges="s2k2 k2k1 k1n1"/>
    </vehicle>
    <vehicle id="292" depart="1051.20">
        <route edges="s3k3 k3k2 k2k1 k1s1"/>
    </vehicle>
    <vehicle id="293" depart="1054.80">
        <route edges="n1k1 k1k2 k2s2"/>
    </vehicle>
    <vehicle id="295" depart="1062.00">
        <route edges="s3k3 k3k2 k2k1 k1s1"/>
    </vehicle>
    <vehicle id="298" depart="1072.80">
        <route edges="s1k1 k1w1"/>
    </vehicle>
    <vehicle id="299" depart="1076.40">
        <route edges="e1k3 k3s3"/>
    </vehicle>
    <vehicle id="300" depart="1080.00">
        <route edges="k1k2 k2k3 k3e1"/>
    </vehicle>
    <vehicle id="302" depart="1087.20">
        <route edges="s1k1 k1k2 k2s2"/>
    </vehicle>
    <vehicle id="305" depart="1098.00">
        <route edges="s1k1 k1w1"/>
    </vehicle>
    <vehicle id="306" depart="1101.60">
        <route edges="n2k2 k2k3"/>
    </vehicle>
    <vehicle id="307" depart="1105.20">
        <route edges="n2k2 k2k3"/>
    </vehicle>
    <vehicle id="308" depart="1108.80">
        <route edges="s1k1 k1w1"/>
    </vehicle>
    <vehicle id="309" depart="1112.40">
        <route edges="s1k1 k1w1"/>
    </vehicle>
    <vehicle id="311" depart="1119.60">
        <route edges="k2k1 k1n1"/>
    </vehicle>
    <vehicle id="313" depart="1126.80">
        <route edges="k2k1 k1s1"/>
    </vehicle>
    <vehicle id="314" depart="1130.40">
        <route edges="n1k1 k1k2 k2k3 k3e1"/>
    </vehicle>
    <vehicle id="315" depart="1134.00">
        <route edges="w1k1 k1k2 k2n2"/>
    </vehicle>
    <vehicle id="317" depart="1141.20">
        <route edges="k2k1 k1s1"/>
    </vehicle>
    <vehicle id="319" depart="1148.40">
        <route edges="n2k2 k2k1 k1w1"/>
    </vehicle>
    <vehicle id="320" depart="1152.00">
        <route edges="w1k1 k1k2 k2n2"/>
    </vehicle>
    <vehicle id="321" depart="1155.60">
        <route edges="s1k1 k1n1"/>
    </vehicle>
    <vehicle id="323" depart="1162.80">
        <route edges="s3k3 k3k2 k2n2"/>
    </vehicle>
    <vehicle id="324" depart="1166.40">
        <route edges="n1k1 k1k2 k2k3"/>
    </vehicle>
    <vehicle id="326" depart="1173.60">
        <route edges="w1k1 k1k2 k2k3"/>
    </vehicle>
    <vehicle id="327" depart="1177.20">
        <route edges="s2k2 k2k1"/>
    </vehicle>
    <vehicle id="328" depart="1180.80">
        <route edges="e1k3 k3k2 k2s2"/>
    </vehicle>
    <vehicle id="329" depart="1184.40">
        <route edges="e1k3 k3k2 k2k1 k1n1"/>
    </vehicle>
    <vehicle id="330" depart="1188.00">
        <route edges="n2k2 k2k1 k1w1"/>
    </vehicle>
    <vehicle id="331" depart="1191.60">
        <route edges="w1k1 k1n1"/>
    </vehicle>
    <vehicle id="333" depart="1198.80">
        <route edges="s2k2 k2k1 k1s1"/>
    </vehicle>
    <vehicle id="334" depart="1202.40">
        <route edges="n2k2 k2k3"/>
    </vehicle>
    <vehicle id="335" depart="1206.00">
        <route edges="n1k1 k1k2 k2k3 k3n3"/>
    </vehicle>
    <vehicle id="337" depart="1213.20">
        <route edges="n3k3 k3k2 k2s2"/>
    </vehicle>
    <vehicle id="338" depart="1216.80">
        <route edges="s1k1 k1k2 k2k3 k3s3"/>
    </vehicle>
    <vehicle id="339" depart="1220.40">
        <route edges="k2k1 k1s1"/>
    </vehicle>
    <vehicle id="340" depart="1224.00">
        <route edges="n3k3 k3k2 k2k1 k1n1"/>
    </vehicle>
    <vehicle id="343" depart="1234.80">
        <route edges="n3k3 k3k2 k2k1 k1w1"/>
    </vehicle>
    <vehicle id="345" depart="1242.00">
        <route edges="s1k1 k1k2 k2k3"/>
    </vehicle>
    <vehicle id="346" depart="1245.60">
        <route edges="s1k1 k1k2 k2k3 k3s3"/>
    </vehicle>
    <vehicle id="348" depart="1252.80">
        <route edges="n3k3 k3s3"/>
    </vehicle>
    <vehicle id="349" depart="1256.40">
        <route edges="n1k1 k1k2 k2n2"/>
    </vehicle>
    <vehicle id="353" depart="1270.80">
        <route edges="s1k1 k1k2 k2n2"/>
    </vehicle>
    <vehicle id="355" depart="1278.00">
        <route edges="s1k1 k1k2 k2k3 k3e1"/>
    </vehicle>
    <vehicle id="356" depart="1281.60">
        <route edges="w1k1 k1k2 k2n2"/>
    </vehicle>
    <vehicle id="357" depart="1285.20">
        <route edges="n1k1 k1k2"/>
    </vehicle>
    <vehicle id="360" depart="1296.00">
        <route edges="k1k2 k2k3 k3s3"/>
    </vehicle>
    <vehicle id="361" depart="1299.60">
        <route edges="s3k3 k3k2 k2n2"/>
    </vehicle>
    <vehicle id="362" depart="1303.20">
        <route edges="w1k1 k1k2 k2k3 k3s3"/>
    </vehicle>
    <vehicle id="363" depart="1306.80">
        <route edges="s1k1 k1w1"/>
    </vehicle>
    <vehicle id="364" depart="1310.40">
        <route edges="e1k3 k3k2"/>
    </vehicle>
    <vehicle id="365" depart="1314.00">
        <route edges="n1k1 k1k2 k2s2"/>
    </vehicle>
    <vehicle id="366" depart="1317.60">
        <route edges="s3k3 k3k2 k2k1 k1s1"/>
    </vehicle>
    <vehicle id="367" depart="1321.20">
        <route edges="n3k3 k3k2 k2s2"/>
    </vehicle>
    <vehicle id="369" depart="1328.40">
        <route edges="k3k2 k2k1 k1w1"/>
    </vehicle>
    <vehicle id="370" depart="1332.00">
        <route edges="s1k1 k1k2 k2k3 k3n3"/>
    </vehicle>
    <vehicle id="371" depart="1335.60">
        <route edges="k2k3 k3e1"/>
    </vehicle>
    <vehicle id="372" depart="1339.20">
        <route edges="k2k3 k3s3"/>
    </vehicle>
    <vehicle id="373" depart="1342.80">
        <route edges="s2k2 k2n2"/>
    </vehicle>
    <vehicle id="374" depart="1346.40">
        <route edges="n1k1 k1w1"/>
    </vehicle>
    <vehicle id="375" depart="1350.00">
        <route edges="k2k3 k3s3"/>
    </vehicle>
    <vehicle id="376" depart="1353.60">
        <route edges="k3k2 k2n2"/>
    </vehicle>
    <vehicle id="377" depart="1357.20">
        <route edges="w1k1 k1k2 k2s2"/>
    </vehicle>
    <vehicle id="378" depart="1360.80">
        <route edges="n2k2 k2k1"/>
    </vehicle>
    <vehicle id="379" depart="1364.40">
        <route edges="k2k1"/>
    </vehicle>
    <vehicle id="381" depart="1371.60">
        <route edges="s2k2 k2k1 k1s1"/>
    </vehicle>
    <vehicle id="382" depart="1375.20">
        <route edges="n2k2 k2k3 k3s3"/>
    </vehicle>
    <vehicle id="383" depart="1378.80">
        <route edges="n1k1 k1k2 k2k3 k3e1"/>
    </vehicle>
    <vehicle id="384" depart="1382.40">
        <route edges="k1k2 k2k3 k3s3"/>
    </vehicle>
    <vehicle id="385" depart="1386.00">
        <route edges="n3k3 k3k2 k2k1 k1s1"/>
    </vehicle>
    <vehicle id="386" depart="1389.60">
        <route edges="k1k2 k2n2"/>
    </vehicle>
    <vehicle id="387" depart="1393.20">
        <route edges="n2k2 k2k1 k1n1"/>
    </vehicle>
    <vehicle id="388" depart="1396.80">
        <route edges="w1k1 k1k2 k2k3 k3n3"/>
    </vehicle>
    <vehicle id="390" depart="1404.00">
        <route edges="s2k2 k2k3"/>
    </vehicle>
    <vehicle id="391" depart="1407.60">
        <route edges="s1k1 k1k2 k2n2"/>
    </vehicle>
    <vehicle id="392" depart="1411.20">
        <route edges="k2k3 k3n3"/>
    </vehicle>
    <vehicle id="393" depart="1414.80">
        <route edges="w1k1 k1s1"/>
    </vehicle>
    <vehicle id="394" depart="1418.40">
        <route edges="n2k2 k2k1"/>
    </vehicle>
    <vehicle id="395" depart="1422.00">
        <route edges="w1k1 k1k2 k2n2"/>
    </vehicle>
    <vehicle id="396" depart="1425.60">
        <route edges="s3k3 k3n3"/>
    </vehicle>
    <vehicle id="401" depart="1443.60">
        <route edges="n3k3 k3s3"/>
    </vehicle>
    <vehicle id="403" depart="1450.80">
        <route edges="n2k2 k2k1"/>
    </vehicle>
    <vehicle id="405" depart="1458.00">
        <route edges="n1k1 k1w1"/>
    </vehicle>
    <vehicle id="407" depart="1465.20">
        <route edges="n2k2 k2k1 k1s1"/>
    </vehicle>
    <vehicle id="409" depart="1472.40">
        <route edges="s1k1 k1k2 k2k3 k3e1"/>
    </vehicle>
    <vehicle id="410" depart="1476.00">
        <route edges="s2k2 k2k1"/>
    </vehicle>
    <vehicle id="411" depart="1479.60">
        <route edges="n3k3 k3k2"/>
    </vehicle>
    <vehicle id="412" depart="1483.20">
        <route edges="w1k1 k1k2 k2k3"/>
    </vehicle>
    <vehicle id="413" depart="1486.80">
        <route edges="e1k3 k3k2 k2n2"/>
    </vehicle>
    <vehicle id="416" depart="1497.60">
        <route edges="n2k2 k2k3"/>
    </vehicle>
    <vehicle id="418" depart="1504.80">
        <route edges="n3k3 k3k2 k2k1 k1n1"/>
    </vehicle>
    <vehicle id="419" depart="1508.40">
        <route edges="n1k1 k1k2 k2k3 k3s3"/>
    </vehicle>
    <vehicle id="422" depart="1519.20">
        <route edges="s3k3 k3n3"/>
    </vehicle>
    <vehicle id="423" depart="1522.80">
        <route edges="k3k2 k2k1 k1w1"/>
    </vehicle>
    <vehicle id="426" depart="1533.60">
        <route edges="e1k3 k3k2 k2s2"/>
    </vehicle>
    <vehicle id="427" depart="1537.20">
        <route edges="w1k1 k1k2 k2k3 k3s3"/>
    </vehicle>
    <vehicle id="428" depart="1540.80">
        <route edges="s1k1 k1k2 k2k3"/>
    </vehicle>
    <vehicle id="429" depart="1544.40">
        <route edges="k1k2 k2s2"/>
    </vehicle>
    <vehicle id="431" depart="1551.60">
        <route edges="s1k1 k1k2 k2k3 k3n3"/>
    </vehicle>
    <vehicle id="432" depart="1555.20">
        <route edges="e1k3 k3k2"/>
    </vehicle>
    <vehicle id="434" depart="1562.40">