<?xml version="1.0" encoding="UTF-8"?>

<!-- generated on 2023-11-23 15:53:10.563001 by randomTrips.py v1_19_0+0000-baa66a0f364
<configuration>
    <net-file value="sim_files/3_junction.net.xml" departSpeed = "max"/>
    <validate value="True" departSpeed = "max"/>
    <end value="10000.0" departSpeed = "max"/>
    <insertion-rate value="1000.0" departSpeed = "max"/>
</configuration>
-->

<!-- generated on 2023-11-23 15:53:10 by Eclipse SUMO duarouter Version 1.19.0
<configuration xmlns:xsi="http://www.w3.org/2001/XMLSchema-instance" xsi:noNamespaceSchemaLocation="http://sumo.dlr.de/xsd/duarouterConfiguration.xsd">

    <input>
        <net-file value="sim_files/3_junction.net.xml" departSpeed = "max"/>
        <route-files value="trips.trips.xml" departSpeed = "max"/>
    </input>

    <output>
        <output-file value="trips.trips.xml.tmp" departSpeed = "max"/>
        <alternatives-output value="NUL" departSpeed = "max"/>
        <write-trips value="true" departSpeed = "max"/>
    </output>

    <time>
        <begin value="0.0" departSpeed = "max"/>
        <end value="10000.0" departSpeed = "max"/>
    </time>

    <report>
        <no-warnings value="true" departSpeed = "max"/>
        <ignore-errors value="true" departSpeed = "max"/>
        <no-step-log value="true" departSpeed = "max"/>
    </report>

</configuration>
-->

<routes xmlns:xsi="http://www.w3.org/2001/XMLSchema-instance" xsi:noNamespaceSchemaLocation="http://sumo.dlr.de/xsd/routes_file.xsd">
    <trip id="2" depart="7.20" from="s1k1" to="k3e1" departSpeed = "max"/>
    <trip id="3" depart="10.80" from="s3k3" to="k1n1" departSpeed = "max"/>
    <trip id="4" depart="14.40" from="n1k1" to="k3e1" departSpeed = "max"/>
    <trip id="6" depart="21.60" from="e1k3" to="k1s1" departSpeed = "max"/>
    <trip id="7" depart="25.20" from="n3k3" to="k2n2" departSpeed = "max"/>
    <trip id="10" depart="36.00" from="s2k2" to="k3e1" departSpeed = "max"/>
    <trip id="11" depart="39.60" from="e1k3" to="k1n1" departSpeed = "max"/>
    <trip id="14" depart="50.40" from="s3k3" to="k2s2" departSpeed = "max"/>
    <trip id="15" depart="54.00" from="s2k2" to="k3e1" departSpeed = "max"/>
    <trip id="16" depart="57.60" from="n2k2" to="k3s3" departSpeed = "max"/>
    <trip id="17" depart="61.20" from="e1k3" to="k2n2" departSpeed = "max"/>
    <trip id="19" depart="68.40" from="s3k3" to="k2n2" departSpeed = "max"/>
    <trip id="20" depart="72.00" from="s1k1" to="k3e1" departSpeed = "max"/>
    <trip id="21" depart="75.60" from="e1k3" to="k1w1" departSpeed = "max"/>
    <trip id="22" depart="79.20" from="e1k3" to="k1s1" departSpeed = "max"/>
    <trip id="24" depart="86.40" from="n3k3" to="k2k1" departSpeed = "max"/>
    <trip id="25" depart="90.00" from="e1k3" to="k1s1" departSpeed = "max"/>
    <trip id="26" depart="93.60" from="w1k1" to="k3s3" departSpeed = "max"/>
    <trip id="27" depart="97.20" from="n3k3" to="k2s2" departSpeed = "max"/>
    <trip id="30" depart="108.00" from="w1k1" to="k2s2" departSpeed = "max"/>
    <trip id="31" depart="111.60" from="n2k2" to="k3e1" departSpeed = "max"/>
    <trip id="32" depart="115.20" from="s3k3" to="k3n3" departSpeed = "max"/>
    <trip id="36" depart="129.60" from="s3k3" to="k1w1" departSpeed = "max"/>
    <trip id="37" depart="133.20" from="n3k3" to="k2k1" departSpeed = "max"/>
    <trip id="40" depart="144.00" from="n2k2" to="k1w1" departSpeed = "max"/>
    <trip id="42" depart="151.20" from="e1k3" to="k1s1" departSpeed = "max"/>
    <trip id="43" depart="154.80" from="w1k1" to="k2n2" departSpeed = "max"/>
    <trip id="44" depart="158.40" from="w1k1" to="k3e1" departSpeed = "max"/>
    <trip id="45" depart="162.00" from="w1k1" to="k2s2" departSpeed = "max"/>
    <trip id="46" depart="165.60" from="s2k2" to="k3e1" departSpeed = "max"/>
    <trip id="47" depart="169.20" from="e1k3" to="k2k1" departSpeed = "max"/>
    <trip id="48" depart="172.80" from="w1k1" to="k2n2" departSpeed = "max"/>
    <trip id="49" depart="176.40" from="w1k1" to="k3n3" departSpeed = "max"/>
    <trip id="51" depart="183.60" from="s1k1" to="k2n2" departSpeed = "max"/>
    <trip id="53" depart="190.80" from="w1k1" to="k3e1" departSpeed = "max"/>
    <trip id="54" depart="194.40" from="n1k1" to="k3s3" departSpeed = "max"/>
    <trip id="55" depart="198.00" from="s3k3" to="k1w1" departSpeed = "max"/>
    <trip id="56" depart="201.60" from="n2k2" to="k1s1" departSpeed = "max"/>
    <trip id="57" depart="205.20" from="s3k3" to="k3n3" departSpeed = "max"/>
    <trip id="59" depart="212.40" from="n3k3" to="k1n1" departSpeed = "max"/>
    <trip id="60" depart="216.00" from="s2k2" to="k2n2" departSpeed = "max"/>
    <trip id="61" depart="219.60" from="s2k2" to="k2n2" departSpeed = "max"/>
    <trip id="62" depart="223.20" from="e1k3" to="k1w1" departSpeed = "max"/>
    <trip id="63" depart="226.80" from="e1k3" to="k3s3" departSpeed = "max"/>
    <trip id="64" depart="230.40" from="s3k3" to="k3n3" departSpeed = "max"/>
    <trip id="67" depart="241.20" from="w1k1" to="k3e1" departSpeed = "max"/>
    <trip id="68" depart="244.80" from="e1k3" to="k3n3" departSpeed = "max"/>
    <trip id="69" depart="248.40" from="s2k2" to="k1n1" departSpeed = "max"/>
    <trip id="70" depart="252.00" from="n1k1" to="k2n2" departSpeed = "max"/>
    <trip id="71" depart="255.60" from="w1k1" to="k3n3" departSpeed = "max"/>
    <trip id="72" depart="259.20" from="n1k1" to="k1s1" departSpeed = "max"/>
    <trip id="73" depart="262.80" from="n2k2" to="k3e1" departSpeed = "max"/>
    <trip id="74" depart="266.40" from="e1k3" to="k1w1" departSpeed = "max"/>
    <trip id="75" depart="270.00" from="w1k1" to="k2s2" departSpeed = "max"/>
    <trip id="76" depart="273.60" from="n1k1" to="k2n2" departSpeed = "max"/>
    <trip id="78" depart="280.80" from="e1k3" to="k2s2" departSpeed = "max"/>
    <trip id="79" depart="284.40" from="e1k3" to="k1s1" departSpeed = "max"/>
    <trip id="80" depart="288.00" from="e1k3" to="k2s2" departSpeed = "max"/>
    <trip id="84" depart="302.40" from="e1k3" to="k1n1" departSpeed = "max"/>
    <trip id="85" depart="306.00" from="w1k1" to="k2n2" departSpeed = "max"/>
    <trip id="87" depart="313.20" from="s2k2" to="k1s1" departSpeed = "max"/>
    <trip id="88" depart="316.80" from="w1k1" to="k3e1" departSpeed = "max"/>
    <trip id="89" depart="320.40" from="n1k1" to="k3e1" departSpeed = "max"/>
    <trip id="90" depart="324.00" from="s1k1" to="k3e1" departSpeed = "max"/>
    <trip id="91" depart="327.60" from="w1k1" to="k1n1" departSpeed = "max"/>
    <trip id="92" depart="331.20" from="e1k3" to="k2k1" departSpeed = "max"/>
    <trip id="93" depart="334.80" from="s3k3" to="k1s1" departSpeed = "max"/>
    <trip id="95" depart="342.00" from="n1k1" to="k1w1" departSpeed = "max"/>
    <trip id="97" depart="349.20" from="n1k1" to="k3n3" departSpeed = "max"/>
    <trip id="99" depart="356.40" from="w1k1" to="k3n3" departSpeed = "max"/>
    <trip id="100" depart="360.00" from="w1k1" to="k3s3" departSpeed = "max"/>
    <trip id="101" depart="363.60" from="s3k3" to="k1n1" departSpeed = "max"/>
    <trip id="102" depart="367.20" from="n1k1" to="k1s1" departSpeed = "max"/>
    <trip id="106" depart="381.60" from="n1k1" to="k3e1" departSpeed = "max"/>
    <trip id="107" depart="385.20" from="w1k1" to="k3s3" departSpeed = "max"/>
    <trip id="108" depart="388.80" from="n2k2" to="k3e1" departSpeed = "max"/>
    <trip id="110" depart="396.00" from="w1k1" to="k2n2" departSpeed = "max"/>
    <trip id="111" depart="399.60" from="n2k2" to="k3e1" departSpeed = "max"/>
    <trip id="112" depart="403.20" from="e1k3" to="k2s2" departSpeed = "max"/>
    <trip id="113" depart="406.80" from="n2k2" to="k3n3" departSpeed = "max"/>
    <trip id="114" depart="410.40" from="w1k1" to="k3s3" departSpeed = "max"/>
    <trip id="115" depart="414.00" from="e1k3" to="k1s1" departSpeed = "max"/>
    <trip id="116" depart="417.60" from="n3k3" to="k3e1" departSpeed = "max"/>
    <trip id="117" depart="421.20" from="e1k3" to="k1n1" departSpeed = "max"/>
    <trip id="118" depart="424.80" from="s3k3" to="k1s1" departSpeed = "max"/>
    <trip id="119" depart="428.40" from="n3k3" to="k2s2" departSpeed = "max"/>
    <trip id="120" depart="432.00" from="n1k1" to="k2s2" departSpeed = "max"/>
    <trip id="121" depart="435.60" from="n2k2" to="k3s3" departSpeed = "max"/>
    <trip id="123" depart="442.80" from="e1k3" to="k2k1" departSpeed = "max"/>
    <trip id="124" depart="446.40" from="s1k1" to="k1w1" departSpeed = "max"/>
    <trip id="127" depart="457.20" from="w1k1" to="k3s3" departSpeed = "max"/>
    <trip id="128" depart="460.80" from="e1k3" to="k1s1" departSpeed = "max"/>
    <trip id="129" depart="464.40" from="w1k1" to="k3s3" departSpeed = "max"/>
    <trip id="130" depart="468.00" from="s3k3" to="k3n3" departSpeed = "max"/>
    <trip id="131" depart="471.60" from="e1k3" to="k1n1" departSpeed = "max"/>
    <trip id="132" depart="475.20" from="s3k3" to="k3e1" departSpeed = "max"/>
    <trip id="133" depart="478.80" from="n3k3" to="k3s3" departSpeed = "max"/>
    <trip id="135" depart="486.00" from="s2k2" to="k1w1" departSpeed = "max"/>
    <trip id="136" depart="489.60" from="n3k3" to="k3s3" departSpeed = "max"/>
    <trip id="138" depart="496.80" from="w1k1" to="k2n2" departSpeed = "max"/>
    <trip id="141" depart="507.60" from="n3k3" to="k1w1" departSpeed = "max"/>
    <trip id="142" depart="511.20" from="n1k1" to="k3n3" departSpeed = "max"/>
    <trip id="143" depart="514.80" from="s3k3" to="k1n1" departSpeed = "max"/>
    <trip id="144" depart="518.40" from="n1k1" to="k1w1" departSpeed = "max"/>
    <trip id="145" depart="522.00" from="e1k3" to="k3n3" departSpeed = "max"/>
    <trip id="146" depart="525.60" from="n3k3" to="k1w1" departSpeed = "max"/>
    <trip id="147" depart="529.20" from="s1k1" to="k2n2" departSpeed = "max"/>
    <trip id="148" depart="532.80" from="n1k1" to="k3e1" departSpeed = "max"/>
    <trip id="149" depart="536.40" from="e1k3" to="k3n3" departSpeed = "max"/>
    <trip id="150" depart="540.00" from="s3k3" to="k2n2" departSpeed = "max"/>
    <trip id="151" depart="543.60" from="s3k3" to="k2n2" departSpeed = "max"/>
    <trip id="153" depart="550.80" from="w1k1" to="k3n3" departSpeed = "max"/>
    <trip id="154" depart="554.40" from="s2k2" to="k3n3" departSpeed = "max"/>
    <trip id="155" depart="558.00" from="s3k3" to="k1s1" departSpeed = "max"/>
    <trip id="156" depart="561.60" from="e1k3" to="k1n1" departSpeed = "max"/>
    <trip id="157" depart="565.20" from="s2k2" to="k3n3" departSpeed = "max"/>
    <trip id="158" depart="568.80" from="e1k3" to="k2s2" departSpeed = "max"/>
    <trip id="159" depart="572.40" from="w1k1" to="k3s3" departSpeed = "max"/>
    <trip id="161" depart="579.60" from="s2k2" to="k3n3" departSpeed = "max"/>
    <trip id="163" depart="586.80" from="w1k1" to="k3s3" departSpeed = "max"/>
    <trip id="164" depart="590.40" from="s2k2" to="k3n3" departSpeed = "max"/>
    <trip id="165" depart="594.00" from="s2k2" to="k1w1" departSpeed = "max"/>
    <trip id="166" depart="597.60" from="s2k2" to="k1n1" departSpeed = "max"/>
    <trip id="167" depart="601.20" from="s3k3" to="k3n3" departSpeed = "max"/>
    <trip id="169" depart="608.40" from="n1k1" to="k1w1" departSpeed = "max"/>
    <trip id="170" depart="612.00" from="s2k2" to="k1s1" departSpeed = "max"/>
    <trip id="171" depart="615.60" from="e1k3" to="k1s1" departSpeed = "max"/>
    <trip id="172" depart="619.20" from="w1k1" to="k3n3" departSpeed = "max"/>
    <trip id="174" depart="626.40" from="n3k3" to="k2k1" departSpeed = "max"/>
    <trip id="175" depart="630.00" from="w1k1" to="k2n2" departSpeed = "max"/>
    <trip id="176" depart="633.60" from="w1k1" to="k1n1" departSpeed = "max"/>
    <trip id="177" depart="637.20" from="w1k1" to="k1s1" departSpeed = "max"/>
    <trip id="179" depart="644.40" from="w1k1" to="k3e1" departSpeed = "max"/>
    <trip id="180" depart="648.00" from="s1k1" to="k1w1" departSpeed = "max"/>
    <trip id="181" depart="651.60" from="n3k3" to="k2n2" departSpeed = "max"/>
    <trip id="182" depart="655.20" from="e1k3" to="k2n2" departSpeed = "max"/>
    <trip id="183" depart="658.80" from="w1k1" to="k3e1" departSpeed = "max"/>
    <trip id="184" depart="662.40" from="e1k3" to="k3s3" departSpeed = "max"/>
    <trip id="185" depart="666.00" from="n2k2" to="k3e1" departSpeed = "max"/>
    <trip id="186" depart="669.60" from="s1k1" to="k3e1" departSpeed = "max"/>
    <trip id="188" depart="676.80" from="n3k3" to="k1w1" departSpeed = "max"/>
    <trip id="189" depart="680.40" from="w1k1" to="k3n3" departSpeed = "max"/>
    <trip id="190" depart="684.00" from="s1k1" to="k1w1" departSpeed = "max"/>
    <trip id="192" depart="691.20" from="e1k3" to="k1w1" departSpeed = "max"/>
    <trip id="193" depart="694.80" from="w1k1" to="k3e1" departSpeed = "max"/>
    <trip id="194" depart="698.40" from="w1k1" to="k3e1" departSpeed = "max"/>
    <trip id="195" depart="702.00" from="s3k3" to="k2s2" departSpeed = "max"/>
    <trip id="197" depart="709.20" from="e1k3" to="k1w1" departSpeed = "max"/>
    <trip id="198" depart="712.80" from="n1k1" to="k2n2" departSpeed = "max"/>
    <trip id="200" depart="720.00" from="n1k1" to="k1s1" departSpeed = "max"/>
    <trip id="201" depart="723.60" from="n1k1" to="k3n3" departSpeed = "max"/>
    <trip id="202" depart="727.20" from="s2k2" to="k1s1" departSpeed = "max"/>
    <trip id="203" depart="730.80" from="w1k1" to="k2n2" departSpeed = "max"/>
    <trip id="204" depart="734.40" from="n3k3" to="k2k1" departSpeed = "max"/>
    <trip id="210" depart="756.00" from="e1k3" to="k2s2" departSpeed = "max"/>
    <trip id="212" depart="763.20" from="n1k1" to="k1s1" departSpeed = "max"/>
    <trip id="215" depart="774.00" from="w1k1" to="k3e1" departSpeed = "max"/>
    <trip id="220" depart="792.00" from="s1k1" to="k3s3" departSpeed = "max"/>
    <trip id="221" depart="795.60" from="n3k3" to="k3s3" departSpeed = "max"/>
    <trip id="222" depart="799.20" from="s3k3" to="k2s2" departSpeed = "max"/>
    <trip id="223" depart="802.80" from="s1k1" to="k2n2" departSpeed = "max"/>
    <trip id="224" depart="806.40" from="s2k2" to="k2n2" departSpeed = "max"/>
    <trip id="225" depart="810.00" from="s3k3" to="k3e1" departSpeed = "max"/>
    <trip id="226" depart="813.60" from="n1k1" to="k1w1" departSpeed = "max"/>
    <trip id="228" depart="820.80" from="s2k2" to="k2n2" departSpeed = "max"/>
    <trip id="229" depart="824.40" from="n3k3" to="k1w1" departSpeed = "max"/>
    <trip id="230" depart="828.00" from="e1k3" to="k1w1" departSpeed = "max"/>
    <trip id="232" depart="835.20" from="n2k2" to="k1n1" departSpeed = "max"/>
    <trip id="234" depart="842.40" from="s1k1" to="k3e1" departSpeed = "max"/>
    <trip id="235" depart="846.00" from="e1k3" to="k2n2" departSpeed = "max"/>
    <trip id="236" depart="849.60" from="e1k3" to="k1s1" departSpeed = "max"/>
    <trip id="237" depart="853.20" from="n1k1" to="k3n3" departSpeed = "max"/>
    <trip id="238" depart="856.80" from="n3k3" to="k3e1" departSpeed = "max"/>
    <trip id="239" depart="860.40" from="s3k3" to="k3n3" departSpeed = "max"/>
    <trip id="241" depart="867.60" from="e1k3" to="k3n3" departSpeed = "max"/>
    <trip id="243" depart="874.80" from="n1k1" to="k3e1" departSpeed = "max"/>
    <trip id="244" depart="878.40" from="n2k2" to="k2s2" departSpeed = "max"/>
    <trip id="245" depart="882.00" from="e1k3" to="k1s1" departSpeed = "max"/>
    <trip id="246" depart="885.60" from="n1k1" to="k3e1" departSpeed = "max"/>
    <trip id="248" depart="892.80" from="e1k3" to="k1n1" departSpeed = "max"/>
    <trip id="251" depart="903.60" from="e1k3" to="k2n2" departSpeed = "max"/>
    <trip id="252" depart="907.20" from="e1k3" to="k2s2" departSpeed = "max"/>
    <trip id="253" depart="910.80" from="w1k1" to="k3e1" departSpeed = "max"/>
    <trip id="254" depart="914.40" from="e1k3" to="k2k1" departSpeed = "max"/>
    <trip id="255" depart="918.00" from="e1k3" to="k1w1" departSpeed = "max"/>
    <trip id="256" depart="921.60" from="s2k2" to="k2k1" departSpeed = "max"/>
    <trip id="259" depart="932.40" from="e1k3" to="k2n2" departSpeed = "max"/>
    <trip id="261" depart="939.60" from="n3k3" to="k3e1" departSpeed = "max"/>
    <trip id="262" depart="943.20" from="n3k3" to="k3e1" departSpeed = "max"/>
    <trip id="263" depart="946.80" from="w1k1" to="k1s1" departSpeed = "max"/>
    <trip id="264" depart="950.40" from="e1k3" to="k1n1" departSpeed = "max"/>
    <trip id="265" depart="954.00" from="w1k1" to="k3e1" departSpeed = "max"/>
    <trip id="266" depart="957.60" from="n2k2" to="k1s1" departSpeed = "max"/>
    <trip id="269" depart="968.40" from="s1k1" to="k1n1" departSpeed = "max"/>
    <trip id="270" depart="972.00" from="s2k2" to="k3s3" departSpeed = "max"/>
    <trip id="271" depart="975.60" from="w1k1" to="k3e1" departSpeed = "max"/>
    <trip id="272" depart="979.20" from="w1k1" to="k3e1" departSpeed = "max"/>
    <trip id="274" depart="986.40" from="s1k1" to="k3e1" departSpeed = "max"/>
    <trip id="275" depart="990.00" from="s1k1" to="k2s2" departSpeed = "max"/>
    <trip id="277" depart="997.20" from="s3k3" to="k2s2" departSpeed = "max"/>
    <trip id="278" depart="1000.80" from="w1k1" to="k3s3" departSpeed = "max"/>
    <trip id="279" depart="1004.40" from="s2k2" to="k2k1" departSpeed = "max"/>
    <trip id="281" depart="1011.60" from="n2k2" to="k2k1" departSpeed = "max"/>
    <trip id="282" depart="1015.20" from="s3k3" to="k3n3" departSpeed = "max"/>
    <trip id="283" depart="1018.80" from="w1k1" to="k3s3" departSpeed = "max"/>
    <trip id="284" depart="1022.40" from="n3k3" to="k3e1" departSpeed = "max"/>
    <trip id="285" depart="1026.00" from="s1k1" to="k3e1" departSpeed = "max"/>
    <trip id="286" depart="1029.60" from="s1k1" to="k3s3" departSpeed = "max"/>
    <trip id="288" depart="1036.80" from="n2k2" to="k3e1" departSpeed = "max"/>
    <trip id="289" depart="1040.40" from="n1k1" to="k3e1" departSpeed = "max"/>
    <trip id="290" depart="1044.00" from="w1k1" to="k3n3" departSpeed = "max"/>
    <trip id="291" depart="1047.60" from="s2k2" to="k1n1" departSpeed = "max"/>
    <trip id="292" depart="1051.20" from="s3k3" to="k1s1" departSpeed = "max"/>
    <trip id="293" depart="1054.80" from="n1k1" to="k2s2" departSpeed = "max"/>
    <trip id="295" depart="1062.00" from="s3k3" to="k1s1" departSpeed = "max"/>
    <trip id="298" depart="1072.80" from="s1k1" to="k1w1" departSpeed = "max"/>
    <trip id="299" depart="1076.40" from="e1k3" to="k3s3" departSpeed = "max"/>
    <trip id="300" depart="1080.00" from="w1k1" to="k3e1" departSpeed = "max"/>
    <trip id="302" depart="1087.20" from="s1k1" to="k2s2" departSpeed = "max"/>
    <trip id="305" depart="1098.00" from="s1k1" to="k1w1" departSpeed = "max"/>
    <trip id="306" depart="1101.60" from="n2k2" to="k3e1" departSpeed = "max"/>
    <trip id="307" depart="1105.20" from="n2k2" to="k3e1" departSpeed = "max"/>
    <trip id="308" depart="1108.80" from="s1k1" to="k1w1" departSpeed = "max"/>
    <trip id="309" depart="1112.40" from="s1k1" to="k1w1" departSpeed = "max"/>
    <trip id="311" depart="1119.60" from="e1k3" to="k1n1" departSpeed = "max"/>
    <trip id="313" depart="1126.80" from="e1k3" to="k1s1" departSpeed = "max"/>
    <trip id="314" depart="1130.40" from="n1k1" to="k3e1" departSpeed = "max"/>
    <trip id="315" depart="1134.00" from="w1k1" to="k2n2" departSpeed = "max"/>
    <trip id="317" depart="1141.20" from="e1k3" to="k1s1" departSpeed = "max"/>
    <trip id="319" depart="1148.40" from="n2k2" to="k1w1" departSpeed = "max"/>
    <trip id="320" depart="1152.00" from="w1k1" to="k2n2" departSpeed = "max"/>
    <trip id="321" depart="1155.60" from="s1k1" to="k1n1" departSpeed = "max"/>
    <trip id="323" depart="1162.80" from="s3k3" to="k2n2" departSpeed = "max"/>
    <trip id="324" depart="1166.40" from="n1k1" to="k3e1" departSpeed = "max"/>
    <trip id="326" depart="1173.60" from="w1k1" to="k3e1" departSpeed = "max"/>
    <trip id="327" depart="1177.20" from="s2k2" to="k2k1" departSpeed = "max"/>
    <trip id="328" depart="1180.80" from="e1k3" to="k2s2" departSpeed = "max"/>
    <trip id="329" depart="1184.40" from="e1k3" to="k1n1" departSpeed = "max"/>
    <trip id="330" depart="1188.00" from="n2k2" to="k1w1" departSpeed = "max"/>
    <trip id="331" depart="1191.60" from="w1k1" to="k1n1" departSpeed = "max"/>
    <trip id="333" depart="1198.80" from="s2k2" to="k1s1" departSpeed = "max"/>
    <trip id="334" depart="1202.40" from="n2k2" to="k3e1" departSpeed = "max"/>
    <trip id="335" depart="1206.00" from="n1k1" to="k3n3" departSpeed = "max"/>
    <trip id="337" depart="1213.20" from="n3k3" to="k2s2" departSpeed = "max"/>
    <trip id="338" depart="1216.80" from="s1k1" to="k3s3" departSpeed = "max"/>
    <trip id="339" depart="1220.40" from="e1k3" to="k1s1" departSpeed = "max"/>
    <trip id="340" depart="1224.00" from="n3k3" to="k1n1" departSpeed = "max"/>
    <trip id="343" depart="1234.80" from="n3k3" to="k1w1" departSpeed = "max"/>
    <trip id="345" depart="1242.00" from="s1k1" to="k3e1" departSpeed = "max"/>
    <trip id="346" depart="1245.60" from="s1k1" to="k3s3" departSpeed = "max"/>
    <trip id="348" depart="1252.80" from="n3k3" to="k3s3" departSpeed = "max"/>
    <trip id="349" depart="1256.40" from="n1k1" to="k2n2" departSpeed = "max"/>
    <trip id="353" depart="1270.80" from="s1k1" to="k2n2" departSpeed = "max"/>
    <trip id="355" depart="1278.00" from="s1k1" to="k3e1" departSpeed = "max"/>
    <trip id="356" depart="1281.60" from="w1k1" to="k2n2" departSpeed = "max"/>
    <trip id="357" depart="1285.20" from="n1k1" to="k3e1" departSpeed = "max"/>
    <trip id="360" depart="1296.00" from="w1k1" to="k3s3" departSpeed = "max"/>
    <trip id="361" depart="1299.60" from="s3k3" to="k2n2" departSpeed = "max"/>
    <trip id="362" depart="1303.20" from="w1k1" to="k3s3" departSpeed = "max"/>
    <trip id="363" depart="1306.80" from="s1k1" to="k1w1" departSpeed = "max"/>
    <trip id="364" depart="1310.40" from="e1k3" to="k3n3" departSpeed = "max"/>
    <trip id="365" depart="1314.00" from="n1k1" to="k2s2" departSpeed = "max"/>
    <trip id="366" depart="1317.60" from="s3k3" to="k1s1" departSpeed = "max"/>
    <trip id="367" depart="1321.20" from="n3k3" to="k2s2" departSpeed = "max"/>
    <trip id="369" depart="1328.40" from="e1k3" to="k1w1" departSpeed = "max"/>
    <trip id="370" depart="1332.00" from="s1k1" to="k3n3" departSpeed = "max"/>
    <trip id="371" depart="1335.60" from="w1k1" to="k3e1" departSpeed = "max"/>
    <trip id="372" depart="1339.20" from="w1k1" to="k3s3" departSpeed = "max"/>
    <trip id="373" depart="1342.80" from="s2k2" to="k2n2" departSpeed = "max"/>
    <trip id="374" depart="1346.40" from="n1k1" to="k1w1" departSpeed = "max"/>
    <trip id="375" depart="1350.00" from="w1k1" to="k3s3" departSpeed = "max"/>
    <trip id="376" depart="1353.60" from="e1k3" to="k2n2" departSpeed = "max"/>
    <trip id="377" depart="1357.20" from="w1k1" to="k2s2" departSpeed = "max"/>
    <trip id="378" depart="1360.80" from="n2k2" to="k2k1" departSpeed = "max"/>
    <trip id="379" depart="1364.40" from="e1k3" to="k2k1" departSpeed = "max"/>
    <trip id="381" depart="1371.60" from="s2k2" to="k1s1" departSpeed = "max"/>
    <trip id="382" depart="1375.20" from="n2k2" to="k3s3" departSpeed = "max"/>
    <trip id="383" depart="1378.80" from="n1k1" to="k3e1" departSpeed = "max"/>
    <trip id="384" depart="1382.40" from="w1k1" to="k3s3" departSpeed = "max"/>
    <trip id="385" depart="1386.00" from="n3k3" to="k1s1" departSpeed = "max"/>
    <trip id="386" depart="1389.60" from="w1k1" to="k2n2" departSpeed = "max"/>
    <trip id="387" depart="1393.20" from="n2k2" to="k1n1" departSpeed = "max"/>
    <trip id="388" depart="1396.80" from="w1k1" to="k3n3" departSpeed = "max"/>
    <trip id="390" depart="1404.00" from="s2k2" to="k3e1" departSpeed = "max"/>
    <trip id="391" depart="1407.60" from="s1k1" to="k2n2" departSpeed = "max"/>
    <trip id="392" depart="1411.20" from="w1k1" to="k3n3" departSpeed = "max"/>
    <trip id="393" depart="1414.80" from="w1k1" to="k1s1" departSpeed = "max"/>
    <trip id="394" depart="1418.40" from="n2k2" to="k2k1" departSpeed = "max"/>
    <trip id="395" depart="1422.00" from="w1k1" to="k2n2" departSpeed = "max"/>
    <trip id="396" depart="1425.60" from="s3k3" to="k3n3" departSpeed = "max"/>
    <trip id="401" depart="1443.60" from="n3k3" to="k3s3" departSpeed = "max"/>
    <trip id="403" depart="1450.80" from="n2k2" to="k2k1" departSpeed = "max"/>
    <trip id="405" depart="1458.00" from="n1k1" to="k1w1" departSpeed = "max"/>
    <trip id="407" depart="1465.20" from="n2k2" to="k1s1" departSpeed = "max"/>
    <trip id="409" depart="1472.40" from="s1k1" to="k3e1" departSpeed = "max"/>
    <trip id="410" depart="1476.00" from="s2k2" to="k2k1" departSpeed = "max"/>
    <trip id="411" depart="1479.60" from="n3k3" to="k3e1" departSpeed = "max"/>
    <trip id="412" depart="1483.20" from="w1k1" to="k3e1" departSpeed = "max"/>
    <trip id="413" depart="1486.80" from="e1k3" to="k2n2" departSpeed = "max"/>
    <trip id="416" depart="1497.60" from="n2k2" to="k3e1" departSpeed = "max"/>
    <trip id="418" depart="1504.80" from="n3k3" to="k1n1" departSpeed = "max"/>
    <trip id="419" depart="1508.40" from="n1k1" to="k3s3" departSpeed = "max"/>
    <trip id="422" depart="1519.20" from="s3k3" to="k3n3" departSpeed = "max"/>
    <trip id="423" depart="1522.80" from="e1k3" to="k1w1" departSpeed = "max"/>
    <trip id="426" depart="1533.60" from="e1k3" to="k2s2" departSpeed = "max"/>
    <trip id="427" depart="1537.20" from="w1k1" to="k3s3" departSpeed = "max"/>
    <trip id="428" depart="1540.80" from="s1k1" to="k3e1" departSpeed = "max"/>
    <trip id="429" depart="1544.40" from="w1k1" to="k2s2" departSpeed = "max"/>
    <trip id="431" depart="1551.60" from="s1k1" to="k3n3" departSpeed = "max"/>
    <trip id="432" depart="1555.20" from="e1k3" to="k3n3" departSpeed = "max"/>
    <trip id="434" depart="1562.40" from="w1k1" to="k2n2" departSpeed = "max"/>
    <trip id="437" depart="1573.20" from="s3k3" to="k2s2" departSpeed = "max"/>
    <trip id="439" depart="1580.40" from="w1k1" to="k3e1" departSpeed = "max"/>
    <trip id="441" depart="1587.60" from="e1k3" to="k3n3" departSpeed = "max"/>
    <trip id="442" depart="1591.20" from="s3k3" to="k3e1" departSpeed = "max"/>
    <trip id="443" depart="1594.80" from="w1k1" to="k3e1" departSpeed = "max"/>
    <trip id="444" depart="1598.40" from="e1k3" to="k2s2" departSpeed = "max"/>
    <trip id="446" depart="1605.60" from="w1k1" to="k3n3" departSpeed = "max"/>
    <trip id="447" depart="1609.20" from="e1k3" to="k2k1" departSpeed = "max"/>
    <trip id="448" depart="1612.80" from="n1k1" to="k1s1" departSpeed = "max"/>
    <trip id="451" depart="1623.60" from="w1k1" to="k2s2" departSpeed = "max"/>
    <trip id="453" depart="1630.80" from="s1k1" to="k3e1" departSpeed = "max"/>
    <trip id="454" depart="1634.40" from="e1k3" to="k2s2" departSpeed = "max"/>
    <trip id="455" depart="1638.00" from="n1k1" to="k3n3" departSpeed = "max"/>
    <trip id="457" depart="1645.20" from="n3k3" to="k2k1" departSpeed = "max"/>
    <trip id="458" depart="1648.80" from="n3k3" to="k2s2" departSpeed = "max"/>
    <trip id="459" depart="1652.40" from="s1k1" to="k3e1" departSpeed = "max"/>
    <trip id="462" depart="1663.20" from="n3k3" to="k1w1" departSpeed = "max"/>
    <trip id="463" depart="1666.80" from="n1k1" to="k2n2" departSpeed = "max"/>
    <trip id="464" depart="1670.40" from="s1k1" to="k1n1" departSpeed = "max"/>
    <trip id="465" depart="1674.00" from="w1k1" to="k3e1" departSpeed = "max"/>
    <trip id="466" depart="1677.60" from="e1k3" to="k1n1" departSpeed = "max"/>
    <trip id="467" depart="1681.20" from="n2k2" to="k3s3" departSpeed = "max"/>
    <trip id="468" depart="1684.80" from="n2k2" to="k3n3" departSpeed = "max"/>
    <trip id="469" depart="1688.40" from="s2k2" to="k1w1" departSpeed = "max"/>
    <trip id="470" depart="1692.00" from="s2k2" to="k3e1" departSpeed = "max"/>
    <trip id="471" depart="1695.60" from="s2k2" to="k3e1" departSpeed = "max"/>
    <trip id="472" depart="1699.20" from="e1k3" to="k1n1" departSpeed = "max"/>
    <trip id="473" depart="1702.80" from="w1k1" to="k1n1" departSpeed = "max"/>
    <trip id="474" depart="1706.40" from="w1k1" to="k3n3" departSpeed = "max"/>
    <trip id="475" depart="1710.00" from="s1k1" to="k3s3" departSpeed = "max"/>
    <trip id="477" depart="1717.20" from="e1k3" to="k3n3" departSpeed = "max"/>
    <trip id="478" depart="1720.80" from="e1k3" to="k2n2" departSpeed = "max"/>
    <trip id="479" depart="1724.40" from="n1k1" to="k3e1" departSpeed = "max"/>
    <trip id="480" depart="1728.00" from="s1k1" to="k2s2" departSpeed = "max"/>
    <trip id="481" depart="1731.60" from="s2k2" to="k3s3" departSpeed = "max"/>
    <trip id="483" depart="1738.80" from="e1k3" to="k3n3" departSpeed = "max"/>
    <trip id="484" depart="1742.40" from="n2k2" to="k3n3" departSpeed = "max"/>
    <trip id="486" depart="1749.60" from="s2k2" to="k3n3" departSpeed = "max"/>
    <trip id="488" depart="1756.80" from="w1k1" to="k3s3" departSpeed = "max"/>
    <trip id="489" depart="1760.40" from="w1k1" to="k3e1" departSpeed = "max"/>
    <trip id="490" depart="1764.00" from="w1k1" to="k3n3" departSpeed = "max"/>
    <trip id="491" depart="1767.60" from="w1k1" to="k3e1" departSpeed = "max"/>
    <trip id="492" depart="1771.20" from="s1k1" to="k3e1" departSpeed = "max"/>
    <trip id="493" depart="1774.80" from="w1k1" to="k3e1" departSpeed = "max"/>
    <trip id="494" depart="1778.40" from="s1k1" to="k1n1" departSpeed = "max"/>
    <trip id="495" depart="1782.00" from="e1k3" to="k1n1" departSpeed = "max"/>
    <trip id="497" depart="1789.20" from="w1k1" to="k3e1" departSpeed = "max"/>
    <trip id="499" depart="1796.40" from="w1k1" to="k3n3" departSpeed = "max"/>
    <trip id="500" depart="1800.00" from="w1k1" to="k3e1" departSpeed = "max"/>