<?xml version="1.0" encoding="UTF-8"?>

<!-- generated on 2023-11-24 16:23:01 by Eclipse SUMO netedit Version 1.19.0
<configuration xmlns:xsi="http://www.w3.org/2001/XMLSchema-instance" xsi:noNamespaceSchemaLocation="http://sumo.dlr.de/xsd/neteditConfiguration.xsd">

    <input>
        <sumo-net-file value="C:\Users\Sezai\Desktop\digital_twin - Kopya\sim_files\3_junction.net.xml"/>
    </input>

    <output>
        <output-file value="C:\Users\Sezai\Desktop\digital_twin - Kopya\sim_files\3_junction.net.xml"/>
    </output>

    <processing>
        <geometry.min-radius.fix.railways value="false"/>
        <geometry.max-grade.fix value="false"/>
        <offset.disable-normalization value="true"/>
        <lefthand value="0"/>
    </processing>

    <junctions>
        <no-turnarounds value="true"/>
        <junctions.corner-detail value="5"/>
        <junctions.limit-turn-speed value="5.50"/>
        <rectangular-lane-cut value="0"/>
    </junctions>

    <pedestrian>
        <walkingareas value="0"/>
    </pedestrian>

</configuration>
-->

<net version="1.16" junctionCornerDetail="5" limitTurnSpeed="5.50" xmlns:xsi="http://www.w3.org/2001/XMLSchema-instance" xsi:noNamespaceSchemaLocation="http://sumo.dlr.de/xsd/net_file.xsd">

    <location netOffset="0.00,0.00" convBoundary="0.00,-100.10,400.10,100.10" origBoundary="-10000000000.00,-10000000000.00,10000000000.00,10000000000.00" projParameter="!"/>

    <edge id=":K1_0" function="internal">
        <lane id=":K1_0_0" index="0" speed="6.51" length="9.03" shape="95.20,10.40 94.85,7.95 93.80,6.20 92.05,5.15 89.60,4.80"/>
    </edge>
    <edge id=":K1_1" function="internal">
        <lane id=":K1_1_0" index="0" speed="13.89" length="20.80" shape="95.20,10.40 95.20,-10.40"/>
        <lane id=":K1_1_1" index="1" speed="13.89" length="20.80" shape="98.40,10.40 98.40,-10.40"/>
    </edge>
    <edge id=":K1_3" function="internal">
        <lane id=":K1_3_0" index="0" speed="9.26" length="19.35" shape="98.40,10.40 99.15,5.15 101.40,1.40 105.15,-0.85 110.40,-1.60"/>
    </edge>
    <edge id=":K1_4" function="internal">
        <lane id=":K1_4_0" index="0" speed="6.51" length="9.03" shape="110.40,4.80 107.95,5.15 106.20,6.20 105.15,7.95 104.80,10.40"/>
    </edge>
    <edge id=":K1_5" function="internal">
        <lane id=":K1_5_0" index="0" speed="13.89" length="20.80" shape="110.40,4.80 89.60,4.80"/>
        <lane id=":K1_5_1" index="1" speed="13.89" length="20.80" shape="110.40,1.60 89.60,1.60"/>
    </edge>
    <edge id=":K1_7" function="internal">
        <lane id=":K1_7_0" index="0" speed="9.26" length="19.35" shape="110.40,1.60 105.15,0.85 101.40,-1.40 99.15,-5.15 98.40,-10.40"/>
    </edge>
    <edge id=":K1_8" function="internal">
        <lane id=":K1_8_0" index="0" speed="6.51" length="9.03" shape="104.80,-10.40 105.15,-7.95 106.20,-6.20 107.95,-5.15 110.40,-4.80"/>
    </edge>
    <edge id=":K1_9" function="internal">
        <lane id=":K1_9_0" index="0" speed="13.89" length="20.80" shape="104.80,-10.40 104.80,10.40"/>
        <lane id=":K1_9_1" index="1" speed="13.89" length="20.80" shape="101.60,-10.40 101.60,10.40"/>
    </edge>
    <edge id=":K1_11" function="internal">
        <lane id=":K1_11_0" index="0" speed="9.26" length="19.35" shape="101.60,-10.40 100.85,-5.15 98.60,-1.40 94.85,0.85 89.60,1.60"/>
    </edge>
    <edge id=":K1_12" function="internal">
        <lane id=":K1_12_0" index="0" speed="6.51" length="9.03" shape="89.60,-4.80 92.05,-5.15 93.80,-6.20 94.85,-7.95 95.20,-10.40"/>
    </edge>
    <edge id=":K1_13" function="internal">
        <lane id=":K1_13_0" index="0" speed="13.89" length="20.80" shape="89.60,-4.80 110.40,-4.80"/>
        <lane id=":K1_13_1" index="1" speed="13.89" length="20.80" shape="89.60,-1.60 110.40,-1.60"/>
    </edge>
    <edge id=":K1_15" function="internal">
        <lane id=":K1_15_0" index="0" speed="9.26" length="19.35" shape="89.60,-1.60 94.85,-0.85 98.60,1.40 100.85,5.15 101.60,10.40"/>
    </edge>
    <edge id=":K2_0" function="internal">
        <lane id=":K2_0_0" index="0" speed="6.51" length="9.03" shape="195.20,10.40 194.85,7.95 193.80,6.20 192.05,5.15 189.60,4.80"/>
    </edge>
    <edge id=":K2_1" function="internal">
        <lane id=":K2_1_0" index="0" speed="13.89" length="20.80" shape="195.20,10.40 195.20,-10.40"/>
        <lane id=":K2_1_1" index="1" speed="13.89" length="20.80" shape="198.40,10.40 198.40,-10.40"/>
    </edge>
    <edge id=":K2_3" function="internal">
        <lane id=":K2_3_0" index="0" speed="9.26" length="19.35" shape="198.40,10.40 199.15,5.15 201.40,1.40 205.15,-0.85 210.40,-1.60"/>
    </edge>
    <edge id=":K2_4" function="internal">
        <lane id=":K2_4_0" index="0" speed="6.51" length="9.03" shape="210.40,4.80 207.95,5.15 206.20,6.20 205.15,7.95 204.80,10.40"/>
    </edge>
    <edge id=":K2_5" function="internal">
        <lane id=":K2_5_0" index="0" speed="13.89" length="20.80" shape="210.40,4.80 189.60,4.80"/>
        <lane id=":K2_5_1" index="1" speed="13.89" length="20.80" shape="210.40,1.60 189.60,1.60"/>
    </edge>
    <edge id=":K2_7" function="internal">
        <lane id=":K2_7_0" index="0" speed="9.26" length="19.35" shape="210.40,1.60 205.15,0.85 201.40,-1.40 199.15,-5.15 198.40,-10.40"/>
    </edge>
    <edge id=":K2_8" function="internal">
        <lane id=":K2_8_0" index="0" speed="6.51" length="9.03" shape="204.80,-10.40 205.15,-7.95 206.20,-6.20 207.95,-5.15 210.40,-4.80"/>
    </edge>
    <edge id=":K2_9" function="internal">
        <lane id=":K2_9_0" index="0" speed="13.89" length="20.80" shape="204.80,-10.40 204.80,10.40"/>
        <lane id=":K2_9_1" index="1" speed="13.89" length="20.80" shape="201.60,-10.40 201.60,10.40"/>
    </edge>
    <edge id=":K2_11" function="internal">
        <lane id=":K2_11_0" index="0" speed="9.26" length="19.35" shape="201.60,-10.40 200.85,-5.15 198.60,-1.40 194.85,0.85 189.60,1.60"/>
    </edge>
    <edge id=":K2_12" function="internal">
        <lane id=":K2_12_0" index="0" speed="6.51" length="9.03" shape="189.60,-4.80 192.05,-5.15 193.80,-6.20 194.85,-7.95 195.20,-10.40"/>
    </edge>
    <edge id=":K2_13" function="internal">
        <lane id=":K2_13_0" index="0" speed="13.89" length="20.80" shape="189.60,-4.80 210.40,-4.80"/>
        <lane id=":K2_13_1" index="1" speed="13.89" length="20.80" shape="189.60,-1.60 210.40,-1.60"/>
    </edge>
    <edge id=":K2_15" function="internal">
        <lane id=":K2_15_0" index="0" speed="9.26" length="19.35" shape="189.60,-1.60 194.85,-0.85 198.60,1.40 200.85,5.15 201.60,10.40"/>
    </edge>
    <edge id=":K3_0" function="internal">
        <lane id=":K3_0_0" index="0" speed="6.51" length="9.03" shape="295.20,10.40 294.85,7.95 293.80,6.20 292.05,5.15 289.60,4.80"/>
    </edge>
    <edge id=":K3_1" function="internal">
        <lane id=":K3_1_0" index="0" speed="13.89" length="20.80" shape="295.20,10.40 295.20,-10.40"/>
        <lane id=":K3_1_1" index="1" speed="13.89" length="20.80" shape="298.40,10.40 298.40,-10.40"/>
    </edge>
    <edge id=":K3_3" function="internal">
        <lane id=":K3_3_0" index="0" speed="9.26" length="19.35" shape="298.40,10.40 299.15,5.15 301.40,1.40 305.15,-0.85 310.40,-1.60"/>
    </edge>
    <edge id=":K3_4" function="internal">
        <lane id=":K3_4_0" index="0" speed="6.51" length="9.03" shape="310.40,4.80 307.95,5.15 306.20,6.20 305.15,7.95 304.80,10.40"/>
    </edge>
    <edge id=":K3_5" function="internal">
        <lane id=":K3_5_0" index="0" speed="13.89" length="20.80" shape="310.40,4.80 289.60,4.80"/>
        <lane id=":K3_5_1" index="1" speed="13.89" length="20.80" shape="310.40,1.60 289.60,1.60"/>
    </edge>
    <edge id=":K3_7" function="internal">
        <lane id=":K3_7_0" index="0" speed="9.26" length="19.35" shape="310.40,1.60 305.15,0.85 301.40,-1.40 299.15,-5.15 298.40,-10.40"/>
    </edge>
    <edge id=":K3_8" function="internal">
        <lane id=":K3_8_0" index="0" speed="6.51" length="9.03" shape="304.80,-10.40 305.15,-7.95 306.20,-6.20 307.95,-5.15 310.40,-4.80"/>
    </edge>
    <edge id=":K3_9" function="internal">
        <lane id=":K3_9_0" index="0" speed="13.89" length="20.80" shape="304.80,-10.40 304.80,10.40"/>
        <lane id=":K3_9_1" index="1" speed="13.89" length="20.80" shape="301.60,-10.40 301.60,10.40"/>
    </edge>
    <edge id=":K3_11" function="internal">
        <lane id=":K3_11_0" index="0" speed="9.26" length="19.35" shape="301.60,-10.40 300.85,-5.15 298.60,-1.40 294.85,0.85 289.60,1.60"/>
    </edge>
    <edge id=":K3_12" function="internal">
        <lane id=":K3_12_0" index="0" speed="6.51" length="9.03" shape="289.60,-4.80 292.05,-5.15 293.80,-6.20 294.85,-7.95 295.20,-10.40"/>
    </edge>
    <edge id=":K3_13" function="internal">
        <lane id=":K3_13_0" index="0" speed="13.89" length="20.80" shape="289.60,-4.80 310.40,-4.80"/>
        <lane id=":K3_13_1" index="1" speed="13.89" length="20.80" shape="289.60,-1.60 310.40,-1.60"/>
    </edge>
    <edge id=":K3_15" function="internal">
        <lane id=":K3_15_0" index="0" speed="9.26" length="19.35" shape="289.60,-1.60 294.85,-0.85 298.60,1.40 300.85,5.15 301.60,10.40"/>
    </edge>

    <edge id="e1k3" from="e1" to="K3" priority="-1" spreadType="center" length="200.00" shape="400.10,3.20 300.00,3.20">
        <lane id="e1k3_0" index="0" speed="13.89" length="200.00" shape="400.00,4.80 310.40,4.80"/>
        <lane id="e1k3_1" index="1" speed="13.89" length="200.00" shape="400.00,1.60 310.40,1.60"/>
    </edge>
    <edge id="k1k2" from="K1" to="K2" priority="-1" spreadType="center" length="200.00" shape="100.00,-3.20 200.10,-3.20">
        <lane id="k1k2_0" index="0" speed="13.89" length="200.00" shape="110.40,-4.80 189.60,-4.80"/>
        <lane id="k1k2_1" index="1" speed="13.89" length="200.00" shape="110.40,-1.60 189.60,-1.60"/>
    </edge>
    <edge id="k1n1" from="K1" to="n1" priority="-1" spreadType="center" length="200.00" shape="103.20,0.00 103.20,100.10">
        <lane id="k1n1_0" index="0" speed="13.89" length="200.00" shape="104.80,10.40 104.80,100.10"/>
        <lane id="k1n1_1" index="1" speed="13.89" length="200.00" shape="101.60,10.40 101.60,100.10"/>
    </edge>
    <edge id="k1s1" from="K1" to="s1" priority="-1" spreadType="center" length="200.00" shape="96.80,0.00 96.80,-100.10">
        <lane id="k1s1_0" index="0" speed="13.89" length="200.00" shape="95.20,-10.40 95.20,-100.10"/>
        <lane id="k1s1_1" index="1" speed="13.89" length="200.00" shape="98.40,-10.40 98.40,-100.10"/>
    </edge>
    <edge id="k1w1" from="K1" to="w1" priority="-1" spreadType="center" length="200.00" shape="100.10,3.20 0.00,3.20">
        <lane id="k1w1_0" index="0" speed="13.89" length="200.00" shape="89.60,4.80 0.00,4.80"/>
        <lane id="k1w1_1" index="1" speed="13.89" length="200.00" shape="89.60,1.60 0.00,1.60"/>
    </edge>
    <edge id="k2k1" from="K2" to="K1" priority="-1" spreadType="center" length="200.00" shape="200.10,3.20 100.00,3.20">
        <lane id="k2k1_0" index="0" speed="13.89" length="200.00" shape="189.60,4.80 110.40,4.80"/>
        <lane id="k2k1_1" index="1" speed="13.89" length="200.00" shape="189.60,1.60 110.40,1.60"/>
    </edge>
    <edge id="k2k3" from="K2" to="K3" priority="-1" spreadType="center" length="200.00" shape="200.00,-3.20 300.10,-3.20">
        <lane id="k2k3_0" index="0" speed="13.89" length="200.00" shape="210.40,-4.80 289.60,-4.80"/>
        <lane id="k2k3_1" index="1" speed="13.89" length="200.00" shape="210.40,-1.60 289.60,-1.60"/>
    </edge>
    <edge id="k2n2" from="K2" to="n2" priority="-1" spreadType="center" length="200.00" shape="203.20,0.00 203.20,100.10">
        <lane id="k2n2_0" index="0" speed="13.89" length="200.00" shape="204.80,10.40 204.80,100.10"/>
        <lane id="k2n2_1" index="1" speed="13.89" length="200.00" shape="201.60,10.40 201.60,100.10"/>
    </edge>
    <edge id="k2s2" from="K2" to="s2" priority="-1" spreadType="center" length="200.00" shape="196.80,0.00 196.80,-100.10">
        <lane id="k2s2_0" index="0" speed="13.89" length="200.00" shape="195.20,-10.40 195.20,-100.10"/>
        <lane id="k2s2_1" index="1" speed="13.89" length="200.00" shape="198.40,-10.40 198.40,-100.10"/>
    </edge>
    <edge id="k3e1" from="K3" to="e1" priority="-1" spreadType="center" length="200.00" shape="300.00,-3.20 400.10,-3.20">
        <lane id="k3e1_0" index="0" speed="13.89" length="200.00" shape="310.40,-4.80 400.00,-4.80"/>
        <lane id="k3e1_1" index="1" speed="13.89" length="200.00" shape="310.40,-1.60 400.00,-1.60"/>
    </edge>
    <edge id="k3k2" from="K3" to="K2" priority="-1" spreadType="center" length="200.00" shape="300.10,3.20 200.00,3.20">
        <lane id="k3k2_0" index="0" speed="13.89" length="200.00" shape="289.60,4.80 210.40,4.80"/>
        <lane id="k3k2_1" index="1" speed="13.89" length="200.00" shape="289.60,1.60 210.40,1.60"/>
    </edge>
    <edge id="k3n3" from="K3" to="n3" priority="-1" spreadType="center" length="200.00" shape="303.20,0.00 303.20,100.10">
        <lane id="k3n3_0" index="0" speed="13.89" length="200.00" shape="304.80,10.40 304.80,100.10"/>
        <lane id="k3n3_1" index="1" speed="13.89" length="200.00" shape="301.60,10.40 301.60,100.10"/>
    </edge>
    <edge id="k3s3" from="K3" to="s3" priority="-1" spreadType="center" length="200.00" shape="296.80,0.10 296.80,-100.00">
        <lane id="k3s3_0" index="0" speed="13.89" length="200.00" shape="295.20,-10.40 295.20,-100.00"/>
        <lane id="k3s3_1" index="1" speed="13.89" length="200.00" shape="298.40,-10.40 298.40,-100.00"/>
    </edge>
    <edge id="n1k1" from="n1" to="K1" priority="-1" spreadType="center" length="200.00" shape="96.80,100.10 96.80,0.00">
        <lane id="n1k1_0" index="0" speed="13.89" length="200.00" shape="95.20,100.10 95.20,10.40"/>
        <lane id="n1k1_1" index="1" speed="13.89" length="200.00" shape="98.40,100.10 98.40,10.40"/>
    </edge>
    <edge id="n2k2" from="n2" to="K2" priority="-1" spreadType="center" length="200.00" shape="196.80,100.10 196.80,0.00">
        <lane id="n2k2_0" index="0" speed="13.89" length="200.00" shape="195.20,100.10 195.20,10.40"/>
        <lane id="n2k2_1" index="1" speed="13.89" length="200.00" shape="198.40,100.10 198.40,10.40"/>
    </edge>
    <edge id="n3k3" from="n3" to="K3" priority="-1" spreadType="center" length="200.00" shape="296.80,100.10 296.80,0.00">
        <lane id="n3k3_0" index="0" speed="13.89" length="200.00" shape="295.20,100.10 295.20,10.40"/>
        <lane id="n3k3_1" index="1" speed="13.89" length="200.00" shape="298.40,100.10 298.40,10.40"/>
    </edge>
    <edge id="s1k1" from="s1" to="K1" priority="-1" spreadType="center" length="200.00" shape="103.20,-100.10 103.20,0.00">
        <lane id="s1k1_0" index="0" speed="13.89" length="200.00" shape="104.80,-100.10 104.80,-10.40"/>
        <lane id="s1k1_1" index="1" speed="13.89" length="200.00" shape="101.60,-100.10 101.60,-10.40"/>
    </edge>
    <edge id="s2k2" from="s2" to="K2" priority="-1" spreadType="center" length="200.00" shape="203.20,-100.10 203.20,0.00">
        <lane id="s2k2_0" index="0" speed="13.89" length="200.00" shape="204.80,-100.10 204.80,-10.40"/>
        <lane id="s2k2_1" index="1" speed="13.89" length="200.00" shape="201.60,-100.10 201.60,-10.40"/>
    </edge>
    <edge id="s3k3" from="s3" to="K3" priority="-1" spreadType="center" length="200.00" shape="303.20,-100.00 303.20,0.10">
        <lane id="s3k3_0" index="0" speed="13.89" length="200.00" shape="304.80,-100.00 304.80,-10.40"/>
        <lane id="s3k3_1" index="1" speed="13.89" length="200.00" shape="301.60,-100.00 301.60,-10.40"/>
    </edge>
    <edge id="w1k1" from="w1" to="K1" priority="-1" spreadType="center" length="200.00" shape="0.00,-3.20 100.10,-3.20">
        <lane id="w1k1_0" index="0" speed="13.89" length="200.00" shape="0.00,-4.80 89.60,-4.80"/>
        <lane id="w1k1_1" index="1" speed="13.89" length="200.00" shape="0.00,-1.60 89.60,-1.60"/>
    </edge>

    <tlLogic id="TL_K1" type="static" programID="0" offset="0">
        <phase duration="2"  state="rrrryyyyrrrrrrrr"/>
        <phase duration="16" state="rrrrGGGGrrrrrrrr"/>
        <phase duration="2"  state="rrrryyyyrrrrrrrr"/>
        <phase duration="3"  state="rrrrrrrrrrrrrrrr"/>
        <phase duration="2"  state="rrrrrrrrrrrryyyy"/>
        <phase duration="16" state="rrrrrrrrrrrrGGGG"/>
        <phase duration="2"  state="rrrrrrrrrrrryyyy"/>
        <phase duration="3"  state="rrrrrrrrrrrrrrrr"/>
        <phase duration="2"  state="rrrrrrrryyyyrrrr"/>
        <phase duration="13" state="rrrrrrrrGGGGrrrr"/>
        <phase duration="2"  state="rrrrrrrryyyyrrrr"/>
        <phase duration="3"  state="rrrrrrrrrrrrrrrr"/>
        <phase duration="2"  state="yyyyrrrrrrrrrrrr"/>
        <phase duration="13" state="GGGGrrrrrrrrrrrr"/>
        <phase duration="2"  state="yyyyrrrrrrrrrrrr"/>
        <phase duration="3"  state="rrrrrrrrrrrrrrrr"/>
    </tlLogic>
    <tlLogic id="TL_K2" type="static" programID="0" offset="0">
        <phase duration="2"  state="rrrryyyyrrrrrrrr"/>
        <phase duration="16" state="rrrrGGGGrrrrrrrr"/>
        <phase duration="2"  state="rrrryyyyrrrrrrrr"/>
        <phase duration="3"  state="rrrrrrrrrrrrrrrr"/>
        <phase duration="2"  state="rrrrrrrrrrrryyyy"/>
        <phase duration="16" state="rrrrrrrrrrrrGGGG"/>
        <phase duration="2"  state="rrrrrrrrrrrryyyy"/>
        <phase duration="3"  state="rrrrrrrrrrrrrrrr"/>
        <phase duration="2"  state="rrrrrrrryyyyrrrr"/>
        <phase duration="13" state="rrrrrrrrGGGGrrrr"/>
        <phase duration="2"  state="rrrrrrrryyyyrrrr"/>
        <phase duration="3"  state="rrrrrrrrrrrrrrrr"/>
        <phase duration="2"  state="yyyyrrrrrrrrrrrr"/>
        <phase duration="13" state="GGGGrrrrrrrrrrrr"/>
        <phase duration="2"  state="yyyyrrrrrrrrrrrr"/>
        <phase duration="3"  state="rrrrrrrrrrrrrrrr"/>
    </tlLogic>
    <tlLogic id="TL_K3" type="static" programID="0" offset="0">
        <phase duration="2"  state="rrrryyyyrrrrrrrr"/>
        <phase duration="16" state="rrrrGGGGrrrrrrrr"/>
        <phase duration="2"  state="rrrryyyyrrrrrrrr"/>
        <phase duration="3"  state="rrrrrrrrrrrrrrrr"/>
        <phase duration="2"  state="rrrrrrrrrrrryyyy"/>
        <phase duration="16" state="rrrrrrrrrrrrGGGG"/>
        <phase duration="2"  state="rrrrrrrrrrrryyyy"/>
        <phase duration="3"  state="rrrrrrrrrrrrrrrr"/>
        <phase duration="2"  state="rrrrrrrryyyyrrrr"/>
        <phase duration="13" state="rrrrrrrrGGGGrrrr"/>
        <phase duration="2"  state="rrrrrrrryyyyrrrr"/>
        <phase duration="3"  state="rrrrrrrrrrrrrrrr"/>
        <phase duration="2"  state="yyyyrrrrrrrrrrrr"/>
        <phase duration="13" state="GGGGrrrrrrrrrrrr"/>
        <phase duration="2"  state="yyyyrrrrrrrrrrrr"/>
        <phase duration="3"  state="rrrrrrrrrrrrrrrr"/>
    </tlLogic>

    <junction id="K1" type="traffic_light" x="100.00" y="0.00" incLanes="n1k1_0 n1k1_1 k2k1_0 k2k1_1 s1k1_0 s1k1_1 w1k1_0 w1k1_1" intLanes=":K1_0_0 :K1_1_0 :K1_1_1 :K1_3_0 :K1_4_0 :K1_5_0 :K1_5_1 :K1_7_0 :K1_8_0 :K1_9_0 :K1_9_1 :K1_11_0 :K1_12_0 :K1_13_0 :K1_13_1 :K1_15_0" shape="93.60,10.40 106.40,10.40 106.84,8.18 107.40,7.40 108.18,6.84 109.18,6.51 110.40,6.40 110.40,-6.40 108.18,-6.84 107.40,-7.40 106.84,-8.18 106.51,-9.18 106.40,-10.40 93.60,-10.40 93.16,-8.18 92.60,-7.40 91.82,-6.84 90.82,-6.51 89.60,-6.40 89.60,6.40 91.82,6.84 92.60,7.40 93.16,8.18 93.49,9.18">
        <request index="0"  response="0000000000000000" foes="0000000001100000" cont="0"/>
        <request index="1"  response="0000000000000000" foes="1111100011100000" cont="0"/>
        <request index="2"  response="0000000000000000" foes="1111100011100000" cont="0"/>
        <request index="3"  response="0000011000000000" foes="1110011011100000" cont="0"/>
        <request index="4"  response="0000011000000000" foes="0000011000000000" cont="0"/>
        <request index="5"  response="0000111000001111" foes="1000111000001111" cont="0"/>
        <request index="6"  response="0000111000001111" foes="1000111000001111" cont="0"/>
        <request index="7"  response="0110111000001110" foes="0110111000001110" cont="0"/>
        <request index="8"  response="0000000000000000" foes="0110000000000000" cont="0"/>
        <request index="9"  response="0000000000000000" foes="1110000011111000" cont="0"/>
        <request index="10" response="0000000000000000" foes="1110000011111000" cont="0"/>
        <request index="11" response="0000000000000110" foes="1110000011100110" cont="0"/>
        <request index="12" response="0000000000000110" foes="0000000000000110" cont="0"/>
        <request index="13" response="0000111100001110" foes="0000111110001110" cont="0"/>
        <request index="14" response="0000111100001110" foes="0000111110001110" cont="0"/>
        <request index="15" response="0000111001101110" foes="0000111001101110" cont="0"/>
    </junction>
    <junction id="K2" type="traffic_light" x="200.00" y="0.00" incLanes="n2k2_0 n2k2_1 k3k2_0 k3k2_1 s2k2_0 s2k2_1 k1k2_0 k1k2_1" intLanes=":K2_0_0 :K2_1_0 :K2_1_1 :K2_3_0 :K2_4_0 :K2_5_0 :K2_5_1 :K2_7_0 :K2_8_0 :K2_9_0 :K2_9_1 :K2_11_0 :K2_12_0 :K2_13_0 :K2_13_1 :K2_15_0" shape="193.60,10.40 206.40,10.40 206.84,8.18 207.40,7.40 208.18,6.84 209.18,6.51 210.40,6.40 210.40,-6.40 208.18,-6.84 207.40,-7.40 206.84,-8.18 206.51,-9.18 206.40,-10.40 193.60,-10.40 193.16,-8.18 192.60,-7.40 191.82,-6.84 190.82,-6.51 189.60,-6.40 189.60,6.40 191.82,6.84 192.60,7.40 193.16,8.18 193.49,9.18">
        <request index="0"  response="0000000000000000" foes="0000000001100000" cont="0"/>
        <request index="1"  response="0000000000000000" foes="1111100011100000" cont="0"/>
        <request index="2"  response="0000000000000000" foes="1111100011100000" cont="0"/>
        <request index="3"  response="0000011000000000" foes="1110011011100000" cont="0"/>
        <request index="4"  response="0000011000000000" foes="0000011000000000" cont="0"/>
        <request index="5"  response="0000111000001111" foes="1000111000001111" cont="0"/>
        <request index="6"  response="0000111000001111" foes="1000111000001111" cont="0"/>
        <request index="7"  response="0110111000001110" foes="0110111000001110" cont="0"/>
        <request index="8"  response="0000000000000000" foes="0110000000000000" cont="0"/>
        <request index="9"  response="0000000000000000" foes="1110000011111000" cont="0"/>
        <request index="10" response="0000000000000000" foes="1110000011111000" cont="0"/>
        <request index="11" response="0000000000000110" foes="1110000011100110" cont="0"/>
        <request index="12" response="0000000000000110" foes="0000000000000110" cont="0"/>
        <request index="13" response="0000111100001110" foes="0000111110001110" cont="0"/>
        <request index="14" response="0000111100001110" foes="0000111110001110" cont="0"/>
        <request index="15" response="0000111001101110" foes="0000111001101110" cont="0"/>
    </junction>
    <junction id="K3" type="traffic_light" x="300.00" y="0.00" incLanes="n3k3_0 n3k3_1 e1k3_0 e1k3_1 s3k3_0 s3k3_1 k2k3_0 k2k3_1" intLanes=":K3_0_0 :K3_1_0 :K3_1_1 :K3_3_0 :K3_4_0 :K3_5_0 :K3_5_1 :K3_7_0 :K3_8_0 :K3_9_0 :K3_9_1 :K3_11_0 :K3_12_0 :K3_13_0 :K3_13_1 :K3_15_0" shape="293.60,10.40 306.40,10.40 306.84,8.18 307.40,7.40 308.18,6.84 309.18,6.51 310.40,6.40 310.40,-6.40 308.18,-6.84 307.40,-7.40 306.84,-8.18 306.51,-9.18 306.40,-10.40 293.60,-10.40 293.16,-8.18 292.60,-7.40 291.82,-6.84 290.82,-6.51 289.60,-6.40 289.60,6.40 291.82,6.84 292.60,7.40 293.16,8.18 293.49,9.18">
        <request index="0"  response="0000000000000000" foes="0000000001100000" cont="0"/>
        <request index="1"  response="0000000000000000" foes="1111100011100000" cont="0"/>
        <request index="2"  response="0000000000000000" foes="1111100011100000" cont="0"/>
        <request index="3"  response="0000011000000000" foes="1110011011100000" cont="0"/>
        <request index="4"  response="0000011000000000" foes="0000011000000000" cont="0"/>
        <request index="5"  response="0000111000001111" foes="1000111000001111" cont="0"/>
        <request index="6"  response="0000111000001111" foes="1000111000001111" cont="0"/>
        <request index="7"  response="0110111000001110" foes="0110111000001110" cont="0"/>
        <request index="8"  response="0000000000000000" foes="0110000000000000" cont="0"/>
        <request index="9"  response="0000000000000000" foes="1110000011111000" cont="0"/>
        <request index="10" response="0000000000000000" foes="1110000011111000" cont="0"/>
        <request index="11" response="0000000000000110" foes="1110000011100110" cont="0"/>
        <request index="12" response="0000000000000110" foes="0000000000000110" cont="0"/>
        <request index="13" response="0000111100001110" foes="0000111110001110" cont="0"/>
        <request index="14" response="0000111100001110" foes="0000111110001110" cont="0"/>
        <request index="15" response="0000111001101110" foes="0000111001101110" cont="0"/>
    </junction>
    <junction id="e1" type="dead_end" x="400.00" y="0.00" incLanes="k3e1_0 k3e1_1" intLanes="" shape="400.00,0.00 400.00,-6.40 400.00,0.00"/>
    <junction id="n1" type="dead_end" x="100.00" y="100.00" incLanes="k1n1_0 k1n1_1" intLanes="" shape="100.00,100.00 106.40,100.00 100.00,100.00"/>
    <junction id="n2" type="dead_end" x="200.00" y="100.00" incLanes="k2n2_0 k2n2_1" intLanes="" shape="200.00,100.00 206.40,100.00 200.00,100.00"/>
    <junction id="n3" type="dead_end" x="300.00" y="100.00" incLanes="k3n3_0 k3n3_1" intLanes="" shape="300.00,100.00 306.40,100.00 300.00,100.00"/>
    <junction id="s1" type="dead_end" x="100.00" y="-100.00" incLanes="k1s1_0 k1s1_1" intLanes="" shape="100.00,-100.00 93.60,-100.00 100.00,-100.00"/>
    <junction id="s2" type="dead_end" x="200.00" y="-100.00" incLanes="k2s2_0 k2s2_1" intLanes="" shape="200.00,-100.00 193.60,-100.00 200.00,-100.00"/>
    <junction id="s3" type="dead_end" x="300.00" y="-100.00" incLanes="k3s3_0 k3s3_1" intLanes="" shape="300.00,-100.00 293.60,-100.00 300.00,-100.00"/>
    <junction id="w1" type="dead_end" x="0.00" y="0.00" incLanes="k1w1_0 k1w1_1" intLanes="" shape="0.00,0.00 0.00,6.40 0.00,-0.00"/>

    <connection from="e1k3" to="k3n3" fromLane="0" toLane="0" via=":K3_4_0" tl="TL_K3" linkIndex="4" dir="r" state="o"/>
    <connection from="e1k3" to="k3k2" fromLane="0" toLane="0" via=":K3_5_0" tl="TL_K3" linkIndex="5" dir="s" state="o"/>
    <connection from="e1k3" to="k3k2" fromLane="1" toLane="1" via=":K3_5_1" tl="TL_K3" linkIndex="6" dir="s" state="o"/>
    <connection from="e1k3" to="k3s3" fromLane="1" toLane="1" via=":K3_7_0" tl="TL_K3" linkIndex="7" dir="l" state="o"/>
    <connection from="k1k2" to="k2s2" fromLane="0" toLane="0" via=":K2_12_0" tl="TL_K2" linkIndex="12" dir="r" state="o"/>
    <connection from="k1k2" to="k2k3" fromLane="0" toLane="0" via=":K2_13_0" tl="TL_K2" linkIndex="13" dir="s" state="o"/>
    <connection from="k1k2" to="k2k3" fromLane="1" toLane="1" via=":K2_13_1" tl="TL_K2" linkIndex="14" dir="s" state="o"/>
    <connection from="k1k2" to="k2n2" fromLane="1" toLane="1" via=":K2_15_0" tl="TL_K2" linkIndex="15" dir="l" state="o"/>
    <connection from="k2k1" to="k1n1" fromLane="0" toLane="0" via=":K1_4_0" tl="TL_K1" linkIndex="4" dir="r" state="o"/>
    <connection from="k2k1" to="k1w1" fromLane="0" toLane="0" via=":K1_5_0" tl="TL_K1" linkIndex="5" dir="s" state="o"/>
    <connection from="k2k1" to="k1w1" fromLane="1" toLane="1" via=":K1_5_1" tl="TL_K1" linkIndex="6" dir="s" state="o"/>
    <connection from="k2k1" to="k1s1" fromLane="1" toLane="1" via=":K1_7_0" tl="TL_K1" linkIndex="7" dir="l" state="o"/>
    <connection from="k2k3" to="k3s3" fromLane="0" toLane="0" via=":K3_12_0" tl="TL_K3" linkIndex="12" dir="r" state="o"/>
    <connection from="k2k3" to="k3e1" fromLane="0" toLane="0" via=":K3_13_0" tl="TL_K3" linkIndex="13" dir="s" state="o"/>
    <connection from="k2k3" to="k3e1" fromLane="1" toLane="1" via=":K3_13_1" tl="TL_K3" linkIndex="14" dir="s" state="o"/>
    <connection from="k2k3" to="k3n3" fromLane="1" toLane="1" via=":K3_15_0" tl="TL_K3" linkIndex="15" dir="l" state="o"/>
    <connection from="k3k2" to="k2n2" fromLane="0" toLane="0" via=":K2_4_0" tl="TL_K2" linkIndex="4" dir="r" state="o"/>
    <connection from="k3k2" to="k2k1" fromLane="0" toLane="0" via=":K2_5_0" tl="TL_K2" linkIndex="5" dir="s" state="o"/>
    <connection from="k3k2" to="k2k1" fromLane="1" toLane="1" via=":K2_5_1" tl="TL_K2" linkIndex="6" dir="s" state="o"/>
    <connection from="k3k2" to="k2s2" fromLane="1" toLane="1" via=":K2_7_0" tl="TL_K2" linkIndex="7" dir="l" state="o"/>
    <connection from="n1k1" to="k1w1" fromLane="0" toLane="0" via=":K1_0_0" tl="TL_K1" linkIndex="0" dir="r" state="O"/>
    <connection from="n1k1" to="k1s1" fromLane="0" toLane="0" via=":K1_1_0" tl="TL_K1" linkIndex="1" dir="s" state="O"/>
    <connection from="n1k1" to="k1s1" fromLane="1" toLane="1" via=":K1_1_1" tl="TL_K1" linkIndex="2" dir="s" state="O"/>
    <connection from="n1k1" to="k1k2" fromLane="1" toLane="1" via=":K1_3_0" tl="TL_K1" linkIndex="3" dir="l" state="o"/>
    <connection from="n2k2" to="k2k1" fromLane="0" toLane="0" via=":K2_0_0" tl="TL_K2" linkIndex="0" dir="r" state="O"/>
    <connection from="n2k2" to="k2s2" fromLane="0" toLane="0" via=":K2_1_0" tl="TL_K2" linkIndex="1" dir="s" state="O"/>
    <connection from="n2k2" to="k2s2" fromLane="1" toLane="1" via=":K2_1_1" tl="TL_K2" linkIndex="2" dir="s" state="O"/>
    <connection from="n2k2" to="k2k3" fromLane="1" toLane="1" via=":K2_3_0" tl="TL_K2" linkIndex="3" dir="l" state="o"/>
    <connection from="n3k3" to="k3k2" fromLane="0" toLane="0" via=":K3_0_0" tl="TL_K3" linkIndex="0" dir="r" state="O"/>
    <connection from="n3k3" to="k3s3" fromLane="0" toLane="0" via=":K3_1_0" tl="TL_K3" linkIndex="1" dir="s" state="O"/>
    <connection from="n3k3" to="k3s3" fromLane="1" toLane="1" via=":K3_1_1" tl="TL_K3" linkIndex="2" dir="s" state="O"/>